50103698
     RDKit          2D

 30 33  0  0  0  0  0  0  0  0999 V2000
    0.5217  -10.9056    0.0000 C   0  0  0  0  0  0  0  0  0  0  0  0
    0.0582   -9.4791    0.0000 O   0  0  0  0  0  0  0  0  0  0  0  0
    1.0619   -8.3643    0.0000 C   0  0  0  0  0  0  0  0  0  0  0  0
    2.5537   -8.5211    0.0000 N   0  0  0  0  0  0  0  0  0  0  0  0
    3.1638   -7.1508    0.0000 N   0  0  0  0  0  0  0  0  0  0  0  0
    4.6310   -6.8389    0.0000 C   0  0  0  0  0  0  0  0  0  0  0  0
    2.0490   -6.1471    0.0000 C   0  0  0  0  0  0  0  0  0  0  0  0
    2.7990   -4.8481    0.0000 C   0  0  0  0  0  0  0  0  0  0  0  0
    2.7990   -3.3481    0.0000 N   0  0  0  0  0  0  0  0  0  0  0  0
    4.2479   -2.9598    0.0000 C   0  0  0  0  0  0  0  0  0  0  0  0
    2.0490   -2.0490    0.0000 C   0  0  0  0  0  0  0  0  0  0  0  0
    3.1097   -0.9884    0.0000 O   0  0  0  0  0  0  0  0  0  0  0  0
    0.7500   -1.2990    0.0000 C   0  0  0  0  0  0  0  0  0  0  0  0
    1.5000    0.0000    0.0000 C   0  0  0  0  0  0  0  0  0  0  0  0
    0.7500    1.2990    0.0000 C   0  0  0  0  0  0  0  0  0  0  0  0
   -0.7500    1.2990    0.0000 C   0  0  0  0  0  0  0  0  0  0  0  0
   -1.5000    2.5981    0.0000 F   0  0  0  0  0  0  0  0  0  0  0  0
   -1.5000    0.0000    0.0000 C   0  0  0  0  0  0  0  0  0  0  0  0
   -0.7500   -1.2990    0.0000 C   0  0  0  0  0  0  0  0  0  0  0  0
   -2.0490   -2.0490    0.0000 C   0  0  0  0  0  0  0  0  0  0  0  0
   -3.1097   -0.9884    0.0000 C   0  0  0  0  0  0  0  0  0  0  0  0
   -2.7990   -3.3481    0.0000 O   0  0  0  0  0  0  0  0  0  0  0  0
   -2.7990   -4.8481    0.0000 C   0  0  0  0  0  0  0  0  0  0  0  0
   -2.0490   -6.1471    0.0000 N   0  0  0  0  0  0  0  0  0  0  0  0
   -0.7500   -6.8971    0.0000 C   0  0  0  0  0  0  0  0  0  0  0  0
   -2.0226   -7.7459    0.0000 C   0  0  0  0  0  0  0  0  0  0  0  0
   -3.4715   -7.3576    0.0000 N   0  0  0  0  0  0  0  0  0  0  0  0
   -3.8597   -5.9087    0.0000 C   0  0  0  0  0  0  0  0  0  0  0  0
   -5.3086   -5.5205    0.0000 N   0  0  0  0  0  0  0  0  0  0  0  0
    0.7500   -6.8971    0.0000 C   0  0  0  0  0  0  0  0  0  0  0  0
  1  2  1  0
  2  3  1  0
  3  4  2  0
  4  5  1  0
  5  6  1  0
  5  7  1  0
  7  8  1  0
  8  9  1  0
  9 10  1  0
  9 11  1  0
 11 12  2  0
 11 13  1  0
 13 14  2  0
 14 15  1  0
 15 16  2  0
 16 17  1  0
 16 18  1  0
 18 19  2  0
 19 20  1  0
 20 21  1  6
 20 22  1  0
 22 23  1  0
 23 24  1  0
 24 25  2  0
 25 26  1  0
 26 27  2  0
 27 28  1  0
 28 29  1  0
 25 30  1  0
 30  3  1  0
 30  7  2  0
 19 13  1  0
 28 23  2  0
M  END
>  <Ki>  (1) 
nan

>  <IC50>  (1) 
 0.110000

$$$$
