50090160
     RDKit          2D

 36 39  0  0  0  0  0  0  0  0999 V2000
   13.2397   -9.2910    0.0000 C   0  0  0  0  0  0  0  0  0  0  0  0
   12.0261  -10.1727    0.0000 N   0  0  0  0  0  0  0  0  0  0  0  0
   10.6558   -9.5626    0.0000 C   0  0  0  0  0  0  0  0  0  0  0  0
   10.4990   -8.0708    0.0000 O   0  0  0  0  0  0  0  0  0  0  0  0
    9.4423  -10.4442    0.0000 C   0  0  0  0  0  0  0  0  0  0  0  0
    9.5991  -11.9360    0.0000 C   0  0  0  0  0  0  0  0  0  0  0  0
    8.3856  -12.8177    0.0000 C   0  0  0  0  0  0  0  0  0  0  0  0
    7.0152  -12.2076    0.0000 C   0  0  0  0  0  0  0  0  0  0  0  0
    6.8584  -10.7158    0.0000 C   0  0  0  0  0  0  0  0  0  0  0  0
    8.0720   -9.8341    0.0000 C   0  0  0  0  0  0  0  0  0  0  0  0
    7.9152   -8.3424    0.0000 N   0  0  0  0  0  0  0  0  0  0  0  0
    6.5449   -7.7322    0.0000 C   0  0  0  0  0  0  0  0  0  0  0  0
    6.3881   -6.2405    0.0000 N   0  0  0  0  0  0  0  0  0  0  0  0
    5.0177   -5.6304    0.0000 C   0  0  0  0  0  0  0  0  0  0  0  0
    4.8610   -4.1386    0.0000 N   0  0  0  0  0  0  0  0  0  0  0  0
    3.4906   -3.5285    0.0000 C   0  0  0  0  0  0  0  0  0  0  0  0
    3.3338   -2.0367    0.0000 C   0  0  0  0  0  0  0  0  0  0  0  0
    1.9635   -1.4266    0.0000 C   0  0  0  0  0  0  0  0  0  0  0  0
    2.4271    0.0000    0.0000 C   0  0  0  0  0  0  0  0  0  0  0  0
    1.9635    1.4266    0.0000 C   0  0  0  0  0  0  0  0  0  0  0  0
    0.7500    2.3083    0.0000 C   0  0  0  0  0  0  0  0  0  0  0  0
   -0.7500    2.3083    0.0000 C   0  0  0  0  0  0  0  0  0  0  0  0
   -1.9635    1.4266    0.0000 C   0  0  0  0  0  0  0  0  0  0  0  0
   -2.4271    0.0000    0.0000 N   0  0  0  0  0  0  0  0  0  0  0  0
   -3.9271    0.0000    0.0000 C   0  0  0  0  0  0  0  0  0  0  0  0
   -1.9635   -1.4266    0.0000 C   0  0  0  0  0  0  0  0  0  0  0  0
   -0.7500   -2.3083    0.0000 C   0  0  0  0  0  0  0  0  0  0  0  0
    0.7500   -2.3083    0.0000 C   0  0  0  0  0  0  0  0  0  0  0  0
    0.9068   -3.8000    0.0000 C   0  0  0  0  0  0  0  0  0  0  0  0
    2.2771   -4.4102    0.0000 C   0  0  0  0  0  0  0  0  0  0  0  0
    2.4339   -5.9019    0.0000 O   0  0  0  0  0  0  0  0  0  0  0  0
    1.2204   -6.7836    0.0000 C   0  0  0  0  0  0  0  0  0  0  0  0
    3.8042   -6.5120    0.0000 N   0  0  0  0  0  0  0  0  0  0  0  0
    3.9610   -8.0038    0.0000 C   0  0  0  0  0  0  0  0  0  0  0  0
    5.3313   -8.6139    0.0000 C   0  0  0  0  0  0  0  0  0  0  0  0
    5.4881  -10.1057    0.0000 Cl  0  0  0  0  0  0  0  0  0  0  0  0
  1  2  1  0
  2  3  1  0
  3  4  2  0
  3  5  1  0
  5  6  2  0
  6  7  1  0
  7  8  2  0
  8  9  1  0
  9 10  2  0
 10 11  1  0
 11 12  1  0
 12 13  2  0
 13 14  1  0
 14 15  1  0
 15 16  1  0
 16 17  2  0
 17 18  1  0
 18 19  1  0
 19 20  1  0
 20 21  1  0
 21 22  1  0
 22 23  1  0
 23 24  1  0
 24 25  1  0
 24 26  1  0
 26 27  1  0
 27 28  1  0
 28 29  1  0
 29 30  2  0
 30 31  1  0
 31 32  1  0
 14 33  2  0
 33 34  1  0
 34 35  2  0
 35 36  1  0
 10  5  1  0
 35 12  1  0
 30 16  1  0
 28 18  2  0
M  END
>  <Ki>  (1) 
nan

>  <IC50>  (1) 
 17

$$$$
