325733
     RDKit          2D

 38 44  0  0  0  0  0  0  0  0999 V2000
    3.0000   -5.1962    0.0000 O   0  0  0  0  0  0  0  0  0  0  0  0
    2.2500   -3.8971    0.0000 C   0  0  0  0  0  0  0  0  0  0  0  0
    0.7500   -3.8971    0.0000 C   0  0  0  0  0  0  0  0  0  0  0  0
   -0.0000   -2.5981    0.0000 C   0  0  0  0  0  0  0  0  0  0  0  0
   -1.4672   -2.9099    0.0000 N   0  0  0  0  0  0  0  0  0  0  0  0
   -1.6240   -4.4017    0.0000 C   0  0  0  0  0  0  0  0  0  0  0  0
   -2.8375   -5.2834    0.0000 C   0  0  0  0  0  0  0  0  0  0  0  0
   -2.6807   -6.7752    0.0000 C   0  0  0  0  0  0  0  0  0  0  0  0
   -1.3104   -7.3853    0.0000 C   0  0  0  0  0  0  0  0  0  0  0  0
   -0.0969   -6.5036    0.0000 C   0  0  0  0  0  0  0  0  0  0  0  0
   -0.2537   -5.0118    0.0000 C   0  0  0  0  0  0  0  0  0  0  0  0
   -3.8943   -7.6569    0.0000 C   0  0  0  0  0  0  0  0  0  0  0  0
   -5.1078   -8.5385    0.0000 N   0  0  0  0  0  0  0  0  0  0  0  0
    0.7500   -1.2990    0.0000 C   0  0  0  0  0  0  0  0  0  0  0  0
    1.5000    0.0000    0.0000 C   0  0  0  0  0  0  0  0  0  0  0  0
    0.7500    1.2990    0.0000 C   0  0  0  0  0  0  0  0  0  0  0  0
   -0.7500    1.2990    0.0000 O   0  0  0  0  0  0  0  0  0  0  0  0
   -1.5000    0.0000    0.0000 C   0  0  0  0  0  0  0  0  0  0  0  0
   -0.7500   -1.2990    0.0000 C   0  0  0  0  0  0  0  0  0  0  0  0
    2.2500   -1.2990    0.0000 C   0  0  0  0  0  0  0  0  0  0  0  0
    3.0000   -0.0000    0.0000 C   0  0  0  0  0  0  0  0  0  0  0  0
    4.5000   -0.0000    0.0000 C   0  0  0  0  0  0  0  0  0  0  0  0
    5.2500    1.2990    0.0000 N   0  0  0  0  0  0  0  0  0  0  0  0
    6.7500    1.2990    0.0000 C   0  0  0  0  0  0  0  0  0  0  0  0
    7.5000    2.5981    0.0000 C   0  0  0  0  0  0  0  0  0  0  0  0
    6.7500    3.8971    0.0000 C   0  0  0  0  0  0  0  0  0  0  0  0
    5.2500    3.8971    0.0000 C   0  0  0  0  0  0  0  0  0  0  0  0
    4.5000    2.5981    0.0000 C   0  0  0  0  0  0  0  0  0  0  0  0
    7.5000    5.1962    0.0000 N   0  0  0  0  0  0  0  0  0  0  0  0
    6.8899    6.5665    0.0000 C   0  0  0  0  0  0  0  0  0  0  0  0
    8.0046    7.5702    0.0000 C   0  0  0  0  0  0  0  0  0  0  0  0
    9.3037    6.8202    0.0000 C   0  0  0  0  0  0  0  0  0  0  0  0
    8.9918    5.3529    0.0000 C   0  0  0  0  0  0  0  0  0  0  0  0
    5.2500   -1.2990    0.0000 C   0  0  0  0  0  0  0  0  0  0  0  0
    4.5000   -2.5981    0.0000 C   0  0  0  0  0  0  0  0  0  0  0  0
    3.0000   -2.5981    0.0000 C   0  0  0  0  0  0  0  0  0  0  0  0
    6.7500   -1.2990    0.0000 C   0  0  0  0  0  0  0  0  0  0  0  0
    8.2500   -1.2990    0.0000 N   0  0  0  0  0  0  0  0  0  0  0  0
  1  2  2  0
  2  3  1  0
  3  4  2  0
  4  5  1  0
  5  6  1  0
  6  7  2  0
  7  8  1  0
  8  9  2  0
  9 10  1  0
 10 11  2  0
  8 12  1  0
 12 13  3  0
  4 14  1  0
 14 15  1  0
 15 16  1  0
 16 17  1  0
 17 18  1  0
 18 19  1  0
 14 20  1  0
 20 21  2  0
 21 22  1  0
 22 23  1  0
 23 24  1  0
 24 25  1  0
 25 26  1  0
 26 27  1  0
 27 28  1  0
 26 29  1  0
 29 30  1  0
 30 31  1  0
 31 32  1  0
 32 33  1  0
 22 34  2  0
 34 35  1  0
 35 36  2  0
 34 37  1  0
 37 38  3  0
 36  2  1  0
 11  3  1  0
 19 14  1  0
 36 20  1  0
 11  6  1  0
 28 23  1  0
 33 29  1  0
M  END
>  <Ki>  (1) 
nan

>  <IC50>  (1) 
 0.86

$$$$
