325940
     RDKit          2D

 37 40  0  0  0  0  0  0  0  0999 V2000
   15.3622    0.5121    0.0000 C   0  0  0  0  0  0  0  0  0  0  0  0
   14.8142    1.9084    0.0000 C   0  0  0  0  0  0  0  0  0  0  0  0
   13.3309    2.1320    0.0000 O   0  0  0  0  0  0  0  0  0  0  0  0
   12.3957    0.9593    0.0000 C   0  0  0  0  0  0  0  0  0  0  0  0
   10.9125    1.1828    0.0000 C   0  0  0  0  0  0  0  0  0  0  0  0
    9.9772    0.0101    0.0000 C   0  0  0  0  0  0  0  0  0  0  0  0
   10.5252   -1.3862    0.0000 N   0  0  0  0  0  0  0  0  0  0  0  0
   12.0085   -1.6098    0.0000 N   0  0  0  0  0  0  0  0  0  0  0  0
   12.9437   -0.4371    0.0000 C   0  0  0  0  0  0  0  0  0  0  0  0
   14.4270   -0.6606    0.0000 N   0  0  0  0  0  0  0  0  0  0  0  0
    8.4940    0.2336    0.0000 C   0  0  0  0  0  0  0  0  0  0  0  0
    7.5587   -0.9391    0.0000 O   0  0  0  0  0  0  0  0  0  0  0  0
    7.9460    1.6299    0.0000 N   0  0  0  0  0  0  0  0  0  0  0  0
    6.4627    1.8535    0.0000 C   0  0  0  0  0  0  0  0  0  0  0  0
    5.9147    3.2498    0.0000 C   0  0  0  0  0  0  0  0  0  0  0  0
    4.4315    3.4734    0.0000 C   0  0  0  0  0  0  0  0  0  0  0  0
    3.4962    2.3006    0.0000 C   0  0  0  0  0  0  0  0  0  0  0  0
    4.0442    0.9043    0.0000 C   0  0  0  0  0  0  0  0  0  0  0  0
    5.5275    0.6808    0.0000 C   0  0  0  0  0  0  0  0  0  0  0  0
    2.0130    2.5242    0.0000 C   0  0  0  0  0  0  0  0  0  0  0  0
    1.4650    3.9205    0.0000 O   0  0  0  0  0  0  0  0  0  0  0  0
    1.0777    1.3515    0.0000 N   0  0  0  0  0  0  0  0  0  0  0  0
    1.7286    0.0000    0.0000 C   0  0  0  0  0  0  0  0  0  0  0  0
    1.0777   -1.3515    0.0000 C   0  0  0  0  0  0  0  0  0  0  0  0
   -0.3846   -1.6852    0.0000 C   0  0  0  0  0  0  0  0  0  0  0  0
   -1.5574   -0.7500    0.0000 N   0  0  0  0  0  0  0  0  0  0  0  0
   -1.5574    0.7500    0.0000 C   0  0  0  0  0  0  0  0  0  0  0  0
   -0.3846    1.6852    0.0000 C   0  0  0  0  0  0  0  0  0  0  0  0
   15.7494    3.0812    0.0000 C   0  0  0  0  0  0  0  0  0  0  0  0
   15.2014    4.4775    0.0000 C   0  0  0  0  0  0  0  0  0  0  0  0
   13.7182    4.7011    0.0000 Cl  0  0  0  0  0  0  0  0  0  0  0  0
   16.1366    5.6502    0.0000 C   0  0  0  0  0  0  0  0  0  0  0  0
   17.6199    5.4267    0.0000 C   0  0  0  0  0  0  0  0  0  0  0  0
   18.1679    4.0304    0.0000 C   0  0  0  0  0  0  0  0  0  0  0  0
   19.6511    3.8068    0.0000 F   0  0  0  0  0  0  0  0  0  0  0  0
   17.2327    2.8576    0.0000 C   0  0  0  0  0  0  0  0  0  0  0  0
   17.7807    1.4613    0.0000 Cl  0  0  0  0  0  0  0  0  0  0  0  0
  2  1  1  1
  2  3  1  0
  3  4  1  0
  4  5  2  0
  5  6  1  0
  6  7  2  0
  7  8  1  0
  8  9  2  0
  9 10  1  0
  6 11  1  0
 11 12  2  0
 11 13  1  0
 13 14  1  0
 14 15  2  0
 15 16  1  0
 16 17  2  0
 17 18  1  0
 18 19  2  0
 17 20  1  0
 20 21  2  0
 20 22  1  0
 22 23  1  0
 23 24  1  0
 24 25  1  0
 25 26  1  0
 26 27  1  0
 27 28  1  0
  2 29  1  0
 29 30  2  0
 30 31  1  0
 30 32  1  0
 32 33  2  0
 33 34  1  0
 34 35  1  0
 34 36  2  0
 36 37  1  0
  9  4  1  0
 19 14  1  0
 28 22  1  0
 36 29  1  0
M  END
>  <Ki>  (1) 
nan

>  <IC50>  (1) 
<1

$$$$
