51272496
     RDKit          2D

 31 34  0  0  0  0  0  0  0  0999 V2000
    2.9664   -4.4428    0.0000 C   0  0  0  0  0  0  0  0  0  0  0  0
    3.1472   -2.9537    0.0000 C   0  0  0  0  0  0  0  0  0  0  0  0
    1.7447   -2.4218    0.0000 O   0  0  0  0  0  0  0  0  0  0  0  0
    0.7500   -1.2990    0.0000 C   0  0  0  0  0  0  0  0  0  0  0  0
    1.5000    0.0000    0.0000 C   0  0  0  0  0  0  0  0  0  0  0  0
    0.7500    1.2990    0.0000 C   0  0  0  0  0  0  0  0  0  0  0  0
    1.7447    2.7366    0.0000 C   0  0  0  0  0  0  0  0  0  0  0  0
    3.1472    3.2685    0.0000 C   0  0  0  0  0  0  0  0  0  0  0  0
    4.6363    3.0877    0.0000 C   0  0  0  0  0  0  0  0  0  0  0  0
    5.8707    2.2356    0.0000 C   0  0  0  0  0  0  0  0  0  0  0  0
    6.5678    0.9074    0.0000 N   0  0  0  0  0  0  0  0  0  0  0  0
    8.0242    1.2663    0.0000 C   0  0  0  0  0  0  0  0  0  0  0  0
    6.5678   -0.5926    0.0000 C   0  0  0  0  0  0  0  0  0  0  0  0
    8.0242   -0.9516    0.0000 O   0  0  0  0  0  0  0  0  0  0  0  0
    5.8707   -1.9208    0.0000 C   0  0  0  0  0  0  0  0  0  0  0  0
    7.2259   -2.5638    0.0000 C   0  0  0  0  0  0  0  0  0  0  0  0
    7.3466   -4.0590    0.0000 C   0  0  0  0  0  0  0  0  0  0  0  0
    6.1121   -4.9111    0.0000 C   0  0  0  0  0  0  0  0  0  0  0  0
    6.2328   -6.4062    0.0000 F   0  0  0  0  0  0  0  0  0  0  0  0
    4.7570   -4.2680    0.0000 C   0  0  0  0  0  0  0  0  0  0  0  0
    4.6363   -2.7729    0.0000 C   0  0  0  0  0  0  0  0  0  0  0  0
    5.2684    4.4480    0.0000 N   0  0  0  0  0  0  0  0  0  0  0  0
    4.1700    5.4695    0.0000 N   0  0  0  0  0  0  0  0  0  0  0  0
    4.3508    6.9586    0.0000 C   0  0  0  0  0  0  0  0  0  0  0  0
    2.8590    4.7405    0.0000 C   0  0  0  0  0  0  0  0  0  0  0  0
    1.4987    5.3726    0.0000 C   0  0  0  0  0  0  0  0  0  0  0  0
    0.1384    6.0047    0.0000 N   0  0  0  0  0  0  0  0  0  0  0  0
   -0.7500    1.2990    0.0000 C   0  0  0  0  0  0  0  0  0  0  0  0
   -1.5000    0.0000    0.0000 N   0  0  0  0  0  0  0  0  0  0  0  0
   -0.7500   -1.2990    0.0000 C   0  0  0  0  0  0  0  0  0  0  0  0
   -1.5000   -2.5981    0.0000 N   0  0  0  0  0  0  0  0  0  0  0  0
  2  1  1  1
  2  3  1  0
  3  4  1  0
  4  5  2  0
  5  6  1  0
  6  7  1  0
  7  8  1  0
  8  9  1  0
  9 10  1  0
 10 11  1  0
 11 12  1  0
 11 13  1  0
 13 14  2  0
 13 15  1  0
 15 16  2  0
 16 17  1  0
 17 18  2  0
 18 19  1  0
 18 20  1  0
 20 21  2  0
  9 22  2  0
 22 23  1  0
 23 24  1  0
 23 25  1  0
 25 26  1  0
 26 27  3  0
  6 28  2  0
 28 29  1  0
 29 30  2  0
 30 31  1  0
 21  2  1  0
 30  4  1  0
 25  8  2  0
 21 15  1  0
M  END
>  <Ki>  (1) 
nan

>  <IC50>  (1) 
 21

$$$$
