50399424
     RDKit          2D

 37 40  0  0  0  0  0  0  0  0999 V2000
    5.2500   -1.2990    0.0000 C   0  0  0  0  0  0  0  0  0  0  0  0
    3.7500   -1.2990    0.0000 C   0  0  0  0  0  0  0  0  0  0  0  0
    3.0000   -2.5981    0.0000 C   0  0  0  0  0  0  0  0  0  0  0  0
    3.0000    0.0000    0.0000 C   0  0  0  0  0  0  0  0  0  0  0  0
    3.7500    1.2990    0.0000 O   0  0  0  0  0  0  0  0  0  0  0  0
    1.5000    0.0000    0.0000 C   0  0  0  0  0  0  0  0  0  0  0  0
    0.7500   -1.2990    0.0000 C   0  0  0  0  0  0  0  0  0  0  0  0
   -0.7500   -1.2990    0.0000 C   0  0  0  0  0  0  0  0  0  0  0  0
   -1.5000   -2.5981    0.0000 O   0  0  0  0  0  0  0  0  0  0  0  0
   -0.7500   -3.8971    0.0000 C   0  0  0  0  0  0  0  0  0  0  0  0
    0.5490   -4.6471    0.0000 C   0  0  0  0  0  0  0  0  0  0  0  0
   -0.7500   -5.3971    0.0000 C   0  0  0  0  0  0  0  0  0  0  0  0
   -1.5000    0.0000    0.0000 C   0  0  0  0  0  0  0  0  0  0  0  0
   -3.0000    0.0000    0.0000 N   0  0  0  0  0  0  0  0  0  0  0  0
   -3.7500    1.2990    0.0000 C   0  0  0  0  0  0  0  0  0  0  0  0
   -3.0000    2.5981    0.0000 N   0  0  0  0  0  0  0  0  0  0  0  0
   -3.7500    3.8971    0.0000 C   0  0  0  0  0  0  0  0  0  0  0  0
   -5.2500    3.8971    0.0000 C   0  0  0  0  0  0  0  0  0  0  0  0
   -6.0000    5.1962    0.0000 Cl  0  0  0  0  0  0  0  0  0  0  0  0
   -6.0000    2.5981    0.0000 C   0  0  0  0  0  0  0  0  0  0  0  0
   -7.5000    2.5981    0.0000 N   0  0  0  0  0  0  0  0  0  0  0  0
   -8.2500    1.2990    0.0000 C   0  0  0  0  0  0  0  0  0  0  0  0
   -7.6399   -0.0713    0.0000 C   0  0  0  0  0  0  0  0  0  0  0  0
   -8.7546   -1.0750    0.0000 N   0  0  0  0  0  0  0  0  0  0  0  0
   -8.5978   -2.5668    0.0000 C   0  0  0  0  0  0  0  0  0  0  0  0
  -10.0537   -0.3250    0.0000 N   0  0  0  0  0  0  0  0  0  0  0  0
   -9.7418    1.1422    0.0000 C   0  0  0  0  0  0  0  0  0  0  0  0
  -10.7455    2.2570    0.0000 S   0  0  0  0  0  0  0  0  0  0  0  0
   -9.6308    3.2607    0.0000 O   0  0  0  0  0  0  0  0  0  0  0  0
  -11.8602    1.2533    0.0000 O   0  0  0  0  0  0  0  0  0  0  0  0
  -11.7492    3.3717    0.0000 C   0  0  0  0  0  0  0  0  0  0  0  0
  -11.2856    4.7983    0.0000 C   0  0  0  0  0  0  0  0  0  0  0  0
  -13.2164    3.0598    0.0000 C   0  0  0  0  0  0  0  0  0  0  0  0
   -5.2500    1.2990    0.0000 N   0  0  0  0  0  0  0  0  0  0  0  0
   -0.7500    1.2990    0.0000 C   0  0  0  0  0  0  0  0  0  0  0  0
    0.7500    1.2990    0.0000 C   0  0  0  0  0  0  0  0  0  0  0  0
    1.5000    2.5981    0.0000 C   0  0  0  0  0  0  0  0  0  0  0  0
  1  2  1  0
  2  3  1  0
  2  4  1  0
  4  5  2  0
  4  6  1  0
  6  7  2  0
  7  8  1  0
  8  9  1  0
  9 10  1  0
 10 11  1  0
 11 12  1  0
  8 13  2  0
 13 14  1  0
 14 15  1  0
 15 16  2  0
 16 17  1  0
 17 18  2  0
 18 19  1  0
 18 20  1  0
 20 21  1  0
 21 22  1  0
 22 23  2  0
 23 24  1  0
 24 25  1  0
 24 26  1  0
 26 27  2  0
 27 28  1  0
 28 29  2  0
 28 30  2  0
 28 31  1  0
 31 32  1  0
 31 33  1  0
 20 34  2  0
 13 35  1  0
 35 36  2  0
 36 37  1  0
 36  6  1  0
 12 10  1  0
 34 15  1  0
 27 22  1  0
M  END
>  <Ki>  (1) 
nan

>  <IC50>  (1) 
 29

$$$$
