50715481
     RDKit          2D

 38 42  0  0  0  0  0  0  0  0999 V2000
   -3.0208  -10.0757    0.0000 C   0  0  0  0  0  0  0  0  0  0  0  0
   -3.3208   -8.6060    0.0000 O   0  0  0  0  0  0  0  0  0  0  0  0
   -2.1981   -7.6113    0.0000 C   0  0  0  0  0  0  0  0  0  0  0  0
   -0.7753   -8.0863    0.0000 C   0  0  0  0  0  0  0  0  0  0  0  0
    0.3475   -7.0916    0.0000 C   0  0  0  0  0  0  0  0  0  0  0  0
    1.7703   -7.5666    0.0000 N   0  0  0  0  0  0  0  0  0  0  0  0
    2.0703   -9.0363    0.0000 C   0  0  0  0  0  0  0  0  0  0  0  0
    3.4932   -9.5113    0.0000 C   0  0  0  0  0  0  0  0  0  0  0  0
    4.6159   -8.5166    0.0000 N   0  0  0  0  0  0  0  0  0  0  0  0
    6.0387   -8.9916    0.0000 C   0  0  0  0  0  0  0  0  0  0  0  0
    4.3159   -7.0469    0.0000 C   0  0  0  0  0  0  0  0  0  0  0  0
    2.8931   -6.5719    0.0000 C   0  0  0  0  0  0  0  0  0  0  0  0
    0.3559   -5.5590    0.0000 C   0  0  0  0  0  0  0  0  0  0  0  0
    1.2570   -4.3598    0.0000 C   0  0  0  0  0  0  0  0  0  0  0  0
    1.4976   -2.8792    0.0000 C   0  0  0  0  0  0  0  0  0  0  0  0
    0.7500   -1.2990    0.0000 C   0  0  0  0  0  0  0  0  0  0  0  0
    1.5000    0.0000    0.0000 C   0  0  0  0  0  0  0  0  0  0  0  0
    0.7500    1.2990    0.0000 C   0  0  0  0  0  0  0  0  0  0  0  0
   -0.7500    1.2990    0.0000 C   0  0  0  0  0  0  0  0  0  0  0  0
   -1.5000    0.0000    0.0000 C   0  0  0  0  0  0  0  0  0  0  0  0
   -2.9697   -0.3000    0.0000 N   0  0  0  0  0  0  0  0  0  0  0  0
   -4.1316   -1.2487    0.0000 C   0  0  0  0  0  0  0  0  0  0  0  0
   -4.7195   -2.6287    0.0000 N   0  0  0  0  0  0  0  0  0  0  0  0
   -4.5988   -4.1238    0.0000 C   0  0  0  0  0  0  0  0  0  0  0  0
   -3.7971   -5.3916    0.0000 N   0  0  0  0  0  0  0  0  0  0  0  0
   -2.4981   -6.1416    0.0000 C   0  0  0  0  0  0  0  0  0  0  0  0
   -0.9993   -6.2020    0.0000 C   0  0  0  0  0  0  0  0  0  0  0  0
   -6.0289   -3.5725    0.0000 N   0  0  0  0  0  0  0  0  0  0  0  0
   -6.5608   -2.1700    0.0000 C   0  0  0  0  0  0  0  0  0  0  0  0
   -5.6122   -1.0081    0.0000 C   0  0  0  0  0  0  0  0  0  0  0  0
   -6.1441    0.3944    0.0000 Cl  0  0  0  0  0  0  0  0  0  0  0  0
   -0.7500   -1.2990    0.0000 C   0  0  0  0  0  0  0  0  0  0  0  0
   -1.5000    2.5981    0.0000 S   0  0  0  0  0  0  0  0  0  0  0  0
   -2.7990    1.8481    0.0000 O   0  0  0  0  0  0  0  0  0  0  0  0
   -0.2010    3.3481    0.0000 O   0  0  0  0  0  0  0  0  0  0  0  0
   -2.2500    3.8971    0.0000 C   0  0  0  0  0  0  0  0  0  0  0  0
   -3.7500    3.8971    0.0000 C   0  0  0  0  0  0  0  0  0  0  0  0
   -1.5000    5.1962    0.0000 C   0  0  0  0  0  0  0  0  0  0  0  0
  1  2  1  0
  2  3  1  0
  3  4  2  0
  4  5  1  0
  5  6  1  0
  6  7  1  0
  7  8  1  0
  8  9  1  0
  9 10  1  0
  9 11  1  0
 11 12  1  0
  5 13  2  0
 13 14  1  0
 14 15  1  0
 15 16  1  0
 16 17  1  0
 17 18  2  0
 18 19  1  0
 19 20  2  0
 20 21  1  0
 21 22  1  0
 22 23  1  0
 23 24  2  0
 24 25  1  0
 25 26  1  0
 26 27  2  0
 24 28  1  0
 28 29  2  0
 29 30  1  0
 30 31  1  0
 20 32  1  0
 19 33  1  0
 33 34  2  0
 33 35  2  0
 33 36  1  0
 36 37  1  0
 36 38  1  0
 26  3  1  0
 12  6  1  0
 27 13  1  0
 32 16  2  0
 30 22  2  0
M  END
>  <Ki>  (1) 
nan

>  <IC50>  (1) 
 30

$$$$
