50170146
     RDKit          2D

 39 43  0  0  0  0  0  0  0  0999 V2000
    3.9786   -1.2990    0.0000 C   0  0  0  0  0  0  0  0  0  0  0  0
    3.2286   -0.0000    0.0000 C   0  0  0  0  0  0  0  0  0  0  0  0
    1.7286    0.0000    0.0000 N   0  0  0  0  0  0  0  0  0  0  0  0
    1.0777    1.3515    0.0000 C   0  0  0  0  0  0  0  0  0  0  0  0
    2.0980    2.4510    0.0000 C   0  0  0  0  0  0  0  0  0  0  0  0
    1.6559    3.8844    0.0000 C   0  0  0  0  0  0  0  0  0  0  0  0
    0.1935    4.2182    0.0000 C   0  0  0  0  0  0  0  0  0  0  0  0
   -0.2487    5.6515    0.0000 N   0  0  0  0  0  0  0  0  0  0  0  0
    0.7716    6.7511    0.0000 C   0  0  0  0  0  0  0  0  0  0  0  0
    2.2340    6.4173    0.0000 N   0  0  0  0  0  0  0  0  0  0  0  0
    3.2543    7.5169    0.0000 C   0  0  0  0  0  0  0  0  0  0  0  0
    2.8121    8.9503    0.0000 C   0  0  0  0  0  0  0  0  0  0  0  0
    3.8324   10.0498    0.0000 Cl  0  0  0  0  0  0  0  0  0  0  0  0
    1.3497    9.2840    0.0000 C   0  0  0  0  0  0  0  0  0  0  0  0
    0.9076   10.7174    0.0000 N   0  0  0  0  0  0  0  0  0  0  0  0
   -0.5548   11.0512    0.0000 C   0  0  0  0  0  0  0  0  0  0  0  0
   -0.9969   12.4845    0.0000 C   0  0  0  0  0  0  0  0  0  0  0  0
   -2.4593   12.8183    0.0000 C   0  0  0  0  0  0  0  0  0  0  0  0
   -3.4796   11.7187    0.0000 C   0  0  0  0  0  0  0  0  0  0  0  0
   -3.0374   10.2854    0.0000 C   0  0  0  0  0  0  0  0  0  0  0  0
   -1.5750    9.9516    0.0000 C   0  0  0  0  0  0  0  0  0  0  0  0
   -1.1329    8.5182    0.0000 O   0  0  0  0  0  0  0  0  0  0  0  0
   -2.1532    7.4187    0.0000 C   0  0  0  0  0  0  0  0  0  0  0  0
   -4.9420   12.0525    0.0000 N   0  0  0  0  0  0  0  0  0  0  0  0
   -5.3841   13.4859    0.0000 C   0  0  0  0  0  0  0  0  0  0  0  0
   -6.8465   13.8197    0.0000 C   0  0  0  0  0  0  0  0  0  0  0  0
   -7.8667   12.7201    0.0000 O   0  0  0  0  0  0  0  0  0  0  0  0
   -7.4246   11.2867    0.0000 C   0  0  0  0  0  0  0  0  0  0  0  0
   -5.9622   10.9530    0.0000 C   0  0  0  0  0  0  0  0  0  0  0  0
    0.3295    8.1845    0.0000 N   0  0  0  0  0  0  0  0  0  0  0  0
   -0.8268    3.1186    0.0000 C   0  0  0  0  0  0  0  0  0  0  0  0
   -2.2892    3.4524    0.0000 O   0  0  0  0  0  0  0  0  0  0  0  0
   -2.7313    4.8857    0.0000 C   0  0  0  0  0  0  0  0  0  0  0  0
   -0.3846    1.6852    0.0000 C   0  0  0  0  0  0  0  0  0  0  0  0
   -1.5574    0.7500    0.0000 C   0  0  0  0  0  0  0  0  0  0  0  0
   -1.5574   -0.7500    0.0000 C   0  0  0  0  0  0  0  0  0  0  0  0
   -0.3846   -1.6852    0.0000 C   0  0  0  0  0  0  0  0  0  0  0  0
    1.0777   -1.3515    0.0000 C   0  0  0  0  0  0  0  0  0  0  0  0
    2.0130   -2.5242    0.0000 O   0  0  0  0  0  0  0  0  0  0  0  0
  1  2  1  0
  2  3  1  0
  3  4  1  0
  4  5  2  0
  5  6  1  0
  6  7  2  0
  7  8  1  0
  8  9  1  0
  9 10  2  0
 10 11  1  0
 11 12  2  0
 12 13  1  0
 12 14  1  0
 14 15  1  0
 15 16  1  0
 16 17  2  0
 17 18  1  0
 18 19  2  0
 19 20  1  0
 20 21  2  0
 21 22  1  0
 22 23  1  0
 19 24  1  0
 24 25  1  0
 25 26  1  0
 26 27  1  0
 27 28  1  0
 28 29  1  0
 14 30  2  0
  7 31  1  0
 31 32  1  0
 32 33  1  0
 31 34  2  0
 34 35  1  0
 35 36  1  0
 36 37  1  0
 37 38  1  0
 38 39  2  0
 38  3  1  0
 34  4  1  0
 30  9  1  0
 21 16  1  0
 29 24  1  0
M  END
>  <Ki>  (1) 
nan

>  <IC50>  (1) 
 34

$$$$
