754406
     RDKit          2D

 34 38  0  0  0  0  0  0  0  0999 V2000
    5.2500   -1.2990    0.0000 C   0  0  0  0  0  0  0  0  0  0  0  0
    3.7500   -1.2990    0.0000 O   0  0  0  0  0  0  0  0  0  0  0  0
    3.0000   -2.5981    0.0000 C   0  0  0  0  0  0  0  0  0  0  0  0
    3.7500   -3.8971    0.0000 C   0  0  0  0  0  0  0  0  0  0  0  0
    3.0000   -5.1962    0.0000 C   0  0  0  0  0  0  0  0  0  0  0  0
    3.7500   -6.4952    0.0000 F   0  0  0  0  0  0  0  0  0  0  0  0
    1.5000   -5.1962    0.0000 C   0  0  0  0  0  0  0  0  0  0  0  0
    0.7500   -3.8971    0.0000 C   0  0  0  0  0  0  0  0  0  0  0  0
    1.5000   -2.5981    0.0000 C   0  0  0  0  0  0  0  0  0  0  0  0
    0.7500   -1.2990    0.0000 C   0  0  0  0  0  0  0  0  0  0  0  0
    1.5000    0.0000    0.0000 C   0  0  0  0  0  0  0  0  0  0  0  0
    0.7500    1.2990    0.0000 C   0  0  0  0  0  0  0  0  0  0  0  0
   -0.7500    1.2990    0.0000 C   0  0  0  0  0  0  0  0  0  0  0  0
   -1.5000    0.0000    0.0000 C   0  0  0  0  0  0  0  0  0  0  0  0
   -3.0000    0.0000    0.0000 C   0  0  0  0  0  0  0  0  0  0  0  0
   -3.7500   -1.2990    0.0000 N   0  0  0  0  0  0  0  0  0  0  0  0
   -3.0000   -2.5981    0.0000 C   0  0  0  0  0  0  0  0  0  0  0  0
   -3.7500   -3.8971    0.0000 N   0  0  0  0  0  0  0  0  0  0  0  0
   -5.2500   -3.8971    0.0000 C   0  0  0  0  0  0  0  0  0  0  0  0
   -6.1317   -2.6836    0.0000 C   0  0  0  0  0  0  0  0  0  0  0  0
   -7.5583   -3.1471    0.0000 C   0  0  0  0  0  0  0  0  0  0  0  0
   -7.5583   -4.6471    0.0000 N   0  0  0  0  0  0  0  0  0  0  0  0
   -6.1317   -5.1106    0.0000 N   0  0  0  0  0  0  0  0  0  0  0  0
   -5.6682   -6.5372    0.0000 C   0  0  0  0  0  0  0  0  0  0  0  0
   -6.6718   -7.6519    0.0000 C   0  0  0  0  0  0  0  0  0  0  0  0
   -4.2009   -6.8491    0.0000 C   0  0  0  0  0  0  0  0  0  0  0  0
   -8.7718   -2.2654    0.0000 C   0  0  0  0  0  0  0  0  0  0  0  0
  -10.1421   -2.8755    0.0000 C   0  0  0  0  0  0  0  0  0  0  0  0
  -11.3556   -1.9939    0.0000 C   0  0  0  0  0  0  0  0  0  0  0  0
  -11.1988   -0.5021    0.0000 N   0  0  0  0  0  0  0  0  0  0  0  0
   -9.8285    0.1080    0.0000 C   0  0  0  0  0  0  0  0  0  0  0  0
   -8.6150   -0.7737    0.0000 C   0  0  0  0  0  0  0  0  0  0  0  0
   -1.5000   -2.5981    0.0000 N   0  0  0  0  0  0  0  0  0  0  0  0
   -0.7500   -1.2990    0.0000 C   0  0  0  0  0  0  0  0  0  0  0  0
  1  2  1  0
  2  3  1  0
  3  4  2  0
  4  5  1  0
  5  6  1  0
  5  7  2  0
  7  8  1  0
  8  9  2  0
  9 10  1  0
 10 11  2  0
 11 12  1  0
 12 13  2  0
 13 14  1  0
 14 15  2  0
 15 16  1  0
 16 17  2  0
 17 18  1  0
 18 19  1  0
 19 20  2  0
 20 21  1  0
 21 22  2  0
 22 23  1  0
 23 24  1  0
 24 25  1  0
 24 26  1  0
 21 27  1  0
 27 28  1  0
 28 29  1  0
 29 30  1  0
 30 31  1  0
 31 32  1  0
 17 33  1  0
 33 34  2  0
  9  3  1  0
 34 10  1  0
 34 14  1  0
 23 19  1  0
 32 27  1  0
M  END
>  <Ki>  (1) 
nan

>  <IC50>  (1) 
 34.0

$$$$
