50090161
     RDKit          2D

 35 38  0  0  0  0  0  0  0  0999 V2000
   13.3712    8.1595    0.0000 C   0  0  0  0  0  0  0  0  0  0  0  0
   13.3712    6.6595    0.0000 N   0  0  0  0  0  0  0  0  0  0  0  0
   12.0721    5.9095    0.0000 C   0  0  0  0  0  0  0  0  0  0  0  0
   10.7731    6.6595    0.0000 O   0  0  0  0  0  0  0  0  0  0  0  0
   12.0721    4.4095    0.0000 C   0  0  0  0  0  0  0  0  0  0  0  0
   13.3712    3.6595    0.0000 C   0  0  0  0  0  0  0  0  0  0  0  0
   13.3712    2.1595    0.0000 C   0  0  0  0  0  0  0  0  0  0  0  0
   12.0721    1.4095    0.0000 C   0  0  0  0  0  0  0  0  0  0  0  0
   10.7731    2.1595    0.0000 C   0  0  0  0  0  0  0  0  0  0  0  0
   10.7731    3.6595    0.0000 C   0  0  0  0  0  0  0  0  0  0  0  0
    9.4741    4.4095    0.0000 N   0  0  0  0  0  0  0  0  0  0  0  0
    8.1750    3.6595    0.0000 C   0  0  0  0  0  0  0  0  0  0  0  0
    6.8760    4.4095    0.0000 N   0  0  0  0  0  0  0  0  0  0  0  0
    5.5769    3.6595    0.0000 C   0  0  0  0  0  0  0  0  0  0  0  0
    4.2779    4.4095    0.0000 N   0  0  0  0  0  0  0  0  0  0  0  0
    2.9789    3.6595    0.0000 C   0  0  0  0  0  0  0  0  0  0  0  0
    2.9789    2.1595    0.0000 C   0  0  0  0  0  0  0  0  0  0  0  0
    1.6798    1.4095    0.0000 C   0  0  0  0  0  0  0  0  0  0  0  0
    2.1929    0.0000    0.0000 C   0  0  0  0  0  0  0  0  0  0  0  0
    1.6798   -1.4095    0.0000 C   0  0  0  0  0  0  0  0  0  0  0  0
    0.3808   -2.1595    0.0000 C   0  0  0  0  0  0  0  0  0  0  0  0
   -1.0964   -1.8991    0.0000 C   0  0  0  0  0  0  0  0  0  0  0  0
   -2.0606   -0.7500    0.0000 N   0  0  0  0  0  0  0  0  0  0  0  0
   -3.4701   -1.2630    0.0000 C   0  0  0  0  0  0  0  0  0  0  0  0
   -2.0606    0.7500    0.0000 C   0  0  0  0  0  0  0  0  0  0  0  0
   -1.0964    1.8991    0.0000 C   0  0  0  0  0  0  0  0  0  0  0  0
    0.3808    2.1595    0.0000 C   0  0  0  0  0  0  0  0  0  0  0  0
    0.3808    3.6595    0.0000 C   0  0  0  0  0  0  0  0  0  0  0  0
    1.6798    4.4095    0.0000 C   0  0  0  0  0  0  0  0  0  0  0  0
    1.6798    5.9095    0.0000 O   0  0  0  0  0  0  0  0  0  0  0  0
    0.3808    6.6595    0.0000 C   0  0  0  0  0  0  0  0  0  0  0  0
    5.5769    2.1595    0.0000 N   0  0  0  0  0  0  0  0  0  0  0  0
    6.8760    1.4095    0.0000 C   0  0  0  0  0  0  0  0  0  0  0  0
    8.1750    2.1595    0.0000 C   0  0  0  0  0  0  0  0  0  0  0  0
    9.4741    1.4095    0.0000 Cl  0  0  0  0  0  0  0  0  0  0  0  0
  1  2  1  0
  2  3  1  0
  3  4  2  0
  3  5  1  0
  5  6  2  0
  6  7  1  0
  7  8  2  0
  8  9  1  0
  9 10  2  0
 10 11  1  0
 11 12  1  0
 12 13  2  0
 13 14  1  0
 14 15  1  0
 15 16  1  0
 16 17  2  0
 17 18  1  0
 18 19  1  0
 19 20  1  0
 20 21  1  0
 21 22  1  0
 22 23  1  0
 23 24  1  0
 23 25  1  0
 25 26  1  0
 26 27  1  0
 27 28  1  0
 28 29  2  0
 29 30  1  0
 30 31  1  0
 14 32  2  0
 32 33  1  0
 33 34  2  0
 34 35  1  0
 10  5  1  0
 34 12  1  0
 29 16  1  0
 27 18  2  0
M  END
>  <Ki>  (1) 
nan

>  <IC50>  (1) 
 36

$$$$
