51084070
     RDKit          2D

 35 39  0  0  0  0  0  0  0  0999 V2000
   11.9160   -3.2333    0.0000 C   0  0  0  0  0  0  0  0  0  0  0  0
   11.6041   -1.7661    0.0000 C   0  0  0  0  0  0  0  0  0  0  0  0
   10.1776   -1.3025    0.0000 O   0  0  0  0  0  0  0  0  0  0  0  0
    9.0628   -2.3062    0.0000 C   0  0  0  0  0  0  0  0  0  0  0  0
    7.6363   -1.8427    0.0000 C   0  0  0  0  0  0  0  0  0  0  0  0
    6.5215   -2.8464    0.0000 C   0  0  0  0  0  0  0  0  0  0  0  0
    6.8334   -4.3136    0.0000 C   0  0  0  0  0  0  0  0  0  0  0  0
    8.2600   -4.7772    0.0000 N   0  0  0  0  0  0  0  0  0  0  0  0
    9.3747   -3.7735    0.0000 C   0  0  0  0  0  0  0  0  0  0  0  0
   10.8013   -4.2370    0.0000 N   0  0  0  0  0  0  0  0  0  0  0  0
    5.0950   -2.3829    0.0000 C   0  0  0  0  0  0  0  0  0  0  0  0
    4.7831   -0.9157    0.0000 C   0  0  0  0  0  0  0  0  0  0  0  0
    3.3565   -0.4521    0.0000 C   0  0  0  0  0  0  0  0  0  0  0  0
    2.2418   -1.4558    0.0000 C   0  0  0  0  0  0  0  0  0  0  0  0
    2.5537   -2.9231    0.0000 C   0  0  0  0  0  0  0  0  0  0  0  0
    1.2546   -3.6731    0.0000 N   0  0  0  0  0  0  0  0  0  0  0  0
    0.1399   -2.6694    0.0000 C   0  0  0  0  0  0  0  0  0  0  0  0
   -1.3273   -2.9812    0.0000 O   0  0  0  0  0  0  0  0  0  0  0  0
    0.7500   -1.2990    0.0000 C   0  0  0  0  0  0  0  0  0  0  0  0
    1.5000    0.0000    0.0000 C   0  0  0  0  0  0  0  0  0  0  0  0
    0.7500    1.2990    0.0000 C   0  0  0  0  0  0  0  0  0  0  0  0
   -0.7500    1.2990    0.0000 N   0  0  0  0  0  0  0  0  0  0  0  0
   -1.5000    2.5981    0.0000 C   0  0  0  0  0  0  0  0  0  0  0  0
   -1.5000    0.0000    0.0000 C   0  0  0  0  0  0  0  0  0  0  0  0
   -0.7500   -1.2990    0.0000 C   0  0  0  0  0  0  0  0  0  0  0  0
    3.9802   -3.3866    0.0000 C   0  0  0  0  0  0  0  0  0  0  0  0
   12.7189   -0.7624    0.0000 C   0  0  0  0  0  0  0  0  0  0  0  0
   12.4070    0.7049    0.0000 C   0  0  0  0  0  0  0  0  0  0  0  0
   10.9804    1.1684    0.0000 Cl  0  0  0  0  0  0  0  0  0  0  0  0
   13.5217    1.7085    0.0000 C   0  0  0  0  0  0  0  0  0  0  0  0
   14.9483    1.2450    0.0000 C   0  0  0  0  0  0  0  0  0  0  0  0
   15.2602   -0.2222    0.0000 C   0  0  0  0  0  0  0  0  0  0  0  0
   16.6867   -0.6857    0.0000 F   0  0  0  0  0  0  0  0  0  0  0  0
   14.1454   -1.2259    0.0000 C   0  0  0  0  0  0  0  0  0  0  0  0
   14.4573   -2.6931    0.0000 Cl  0  0  0  0  0  0  0  0  0  0  0  0
  2  1  1  1
  2  3  1  0
  3  4  1  0
  4  5  2  0
  5  6  1  0
  6  7  2  0
  7  8  1  0
  8  9  2  0
  9 10  1  0
  6 11  1  0
 11 12  2  0
 12 13  1  0
 13 14  2  0
 14 15  1  0
 15 16  1  0
 16 17  1  0
 17 18  2  0
 17 19  1  0
 19 20  1  0
 20 21  1  0
 21 22  1  0
 22 23  1  0
 22 24  1  0
 24 25  1  0
 15 26  2  0
  2 27  1  0
 27 28  2  0
 28 29  1  0
 28 30  1  0
 30 31  2  0
 31 32  1  0
 32 33  1  0
 32 34  2  0
 34 35  1  0
  9  4  1  0
 26 11  1  0
 34 27  1  0
 19 14  1  0
 25 19  1  0
M  END
>  <Ki>  (1) 
nan

>  <IC50>  (1) 
 39

$$$$
