50174550
     RDKit          2D

 36 39  0  0  0  0  0  0  0  0999 V2000
    0.1593   17.5504    0.0000 C   0  0  0  0  0  0  0  0  0  0  0  0
   -0.8609   16.4508    0.0000 C   0  0  0  0  0  0  0  0  0  0  0  0
   -0.4188   15.0175    0.0000 S   0  0  0  0  0  0  0  0  0  0  0  0
    1.0146   15.4596    0.0000 O   0  0  0  0  0  0  0  0  0  0  0  0
   -1.8522   14.5753    0.0000 O   0  0  0  0  0  0  0  0  0  0  0  0
    0.0233   13.5841    0.0000 N   0  0  0  0  0  0  0  0  0  0  0  0
    1.4857   13.2503    0.0000 C   0  0  0  0  0  0  0  0  0  0  0  0
    2.5060   14.3499    0.0000 C   0  0  0  0  0  0  0  0  0  0  0  0
    3.9684   14.0161    0.0000 C   0  0  0  0  0  0  0  0  0  0  0  0
    4.4105   12.5828    0.0000 C   0  0  0  0  0  0  0  0  0  0  0  0
    3.3903   11.4832    0.0000 C   0  0  0  0  0  0  0  0  0  0  0  0
    1.9279   11.8170    0.0000 C   0  0  0  0  0  0  0  0  0  0  0  0
    0.9076   10.7174    0.0000 N   0  0  0  0  0  0  0  0  0  0  0  0
    1.3497    9.2840    0.0000 C   0  0  0  0  0  0  0  0  0  0  0  0
    0.3295    8.1845    0.0000 N   0  0  0  0  0  0  0  0  0  0  0  0
    0.7716    6.7511    0.0000 C   0  0  0  0  0  0  0  0  0  0  0  0
   -0.2487    5.6515    0.0000 N   0  0  0  0  0  0  0  0  0  0  0  0
    0.1935    4.2182    0.0000 C   0  0  0  0  0  0  0  0  0  0  0  0
    1.6559    3.8844    0.0000 C   0  0  0  0  0  0  0  0  0  0  0  0
    2.0980    2.4510    0.0000 C   0  0  0  0  0  0  0  0  0  0  0  0
    1.0777    1.3515    0.0000 C   0  0  0  0  0  0  0  0  0  0  0  0
    1.7286    0.0000    0.0000 C   0  0  0  0  0  0  0  0  0  0  0  0
    1.0777   -1.3515    0.0000 C   0  0  0  0  0  0  0  0  0  0  0  0
   -0.3846   -1.6852    0.0000 N   0  0  0  0  0  0  0  0  0  0  0  0
   -0.7184   -3.1476    0.0000 C   0  0  0  0  0  0  0  0  0  0  0  0
   -2.1518   -3.5898    0.0000 C   0  0  0  0  0  0  0  0  0  0  0  0
   -2.4856   -5.0522    0.0000 O   0  0  0  0  0  0  0  0  0  0  0  0
   -3.9189   -5.4943    0.0000 C   0  0  0  0  0  0  0  0  0  0  0  0
   -1.5574   -0.7500    0.0000 C   0  0  0  0  0  0  0  0  0  0  0  0
   -1.5574    0.7500    0.0000 C   0  0  0  0  0  0  0  0  0  0  0  0
   -0.3846    1.6852    0.0000 C   0  0  0  0  0  0  0  0  0  0  0  0
   -0.8268    3.1186    0.0000 C   0  0  0  0  0  0  0  0  0  0  0  0
    2.2340    6.4173    0.0000 N   0  0  0  0  0  0  0  0  0  0  0  0
    3.2543    7.5169    0.0000 C   0  0  0  0  0  0  0  0  0  0  0  0
    2.8121    8.9503    0.0000 C   0  0  0  0  0  0  0  0  0  0  0  0
    3.8324   10.0498    0.0000 Cl  0  0  0  0  0  0  0  0  0  0  0  0
  1  2  1  0
  2  3  1  0
  3  4  2  0
  3  5  2  0
  3  6  1  0
  7  6  1  6
  7  8  1  0
  8  9  1  0
  9 10  1  0
 10 11  1  0
 11 12  1  0
 12 13  1  1
 13 14  1  0
 14 15  2  0
 15 16  1  0
 16 17  1  0
 17 18  1  0
 18 19  2  0
 19 20  1  0
 20 21  2  0
 21 22  1  0
 22 23  1  0
 23 24  1  0
 24 25  1  0
 25 26  1  0
 26 27  1  0
 27 28  1  0
 24 29  1  0
 29 30  1  0
 30 31  1  0
 31 32  2  0
 16 33  2  0
 33 34  1  0
 34 35  2  0
 35 36  1  0
 12  7  1  0
 35 14  1  0
 32 18  1  0
 31 21  1  0
M  END
>  <Ki>  (1) 
nan

>  <IC50>  (1) 
 50

$$$$
