50266105
     RDKit          2D

 39 43  0  0  0  0  0  0  0  0999 V2000
    5.4460   11.9945    0.0000 C   0  0  0  0  0  0  0  0  0  0  0  0
    6.6595   11.1129    0.0000 C   0  0  0  0  0  0  0  0  0  0  0  0
    8.0299   11.7230    0.0000 C   0  0  0  0  0  0  0  0  0  0  0  0
    6.5027    9.6211    0.0000 S   0  0  0  0  0  0  0  0  0  0  0  0
    5.0110    9.7779    0.0000 O   0  0  0  0  0  0  0  0  0  0  0  0
    7.9945    9.4643    0.0000 O   0  0  0  0  0  0  0  0  0  0  0  0
    6.3459    8.1293    0.0000 C   0  0  0  0  0  0  0  0  0  0  0  0
    7.5595    7.2476    0.0000 C   0  0  0  0  0  0  0  0  0  0  0  0
    7.4027    5.7558    0.0000 C   0  0  0  0  0  0  0  0  0  0  0  0
    6.0324    5.1457    0.0000 C   0  0  0  0  0  0  0  0  0  0  0  0
    4.8188    6.0274    0.0000 C   0  0  0  0  0  0  0  0  0  0  0  0
    4.9756    7.5192    0.0000 C   0  0  0  0  0  0  0  0  0  0  0  0
    3.7621    8.4009    0.0000 N   0  0  0  0  0  0  0  0  0  0  0  0
    2.3918    7.7908    0.0000 C   0  0  0  0  0  0  0  0  0  0  0  0
    1.1783    8.6724    0.0000 N   0  0  0  0  0  0  0  0  0  0  0  0
   -0.1921    8.0623    0.0000 C   0  0  0  0  0  0  0  0  0  0  0  0
   -1.4056    8.9440    0.0000 N   0  0  0  0  0  0  0  0  0  0  0  0
   -2.7759    8.3339    0.0000 C   0  0  0  0  0  0  0  0  0  0  0  0
   -3.9894    9.2156    0.0000 C   0  0  0  0  0  0  0  0  0  0  0  0
   -5.3597    8.6055    0.0000 C   0  0  0  0  0  0  0  0  0  0  0  0
   -5.5165    7.1137    0.0000 C   0  0  0  0  0  0  0  0  0  0  0  0
   -4.3030    6.2320    0.0000 C   0  0  0  0  0  0  0  0  0  0  0  0
   -4.4598    4.7402    0.0000 N   0  0  0  0  0  0  0  0  0  0  0  0
   -3.2463    3.8586    0.0000 C   0  0  0  0  0  0  0  0  0  0  0  0
   -1.8760    4.4687    0.0000 O   0  0  0  0  0  0  0  0  0  0  0  0
   -3.4031    2.3668    0.0000 C   0  0  0  0  0  0  0  0  0  0  0  0
   -2.1895    1.4851    0.0000 N   0  0  0  0  0  0  0  0  0  0  0  0
   -0.8192    2.0952    0.0000 C   0  0  0  0  0  0  0  0  0  0  0  0
    0.3943    1.2135    0.0000 C   0  0  0  0  0  0  0  0  0  0  0  0
    1.2760    0.0000    0.0000 C   0  0  0  0  0  0  0  0  0  0  0  0
    0.3943   -1.2135    0.0000 C   0  0  0  0  0  0  0  0  0  0  0  0
   -1.0323   -0.7500    0.0000 C   0  0  0  0  0  0  0  0  0  0  0  0
   -2.3463   -0.0067    0.0000 C   0  0  0  0  0  0  0  0  0  0  0  0
   -1.0323    0.7500    0.0000 O   0  0  0  0  0  0  0  0  0  0  0  0
   -2.9327    6.8421    0.0000 C   0  0  0  0  0  0  0  0  0  0  0  0
   -0.3488    6.5706    0.0000 N   0  0  0  0  0  0  0  0  0  0  0  0
    0.8647    5.6889    0.0000 C   0  0  0  0  0  0  0  0  0  0  0  0
    2.2350    6.2990    0.0000 C   0  0  0  0  0  0  0  0  0  0  0  0
    3.4485    5.4173    0.0000 Cl  0  0  0  0  0  0  0  0  0  0  0  0
  1  2  1  0
  2  3  1  0
  2  4  1  0
  4  5  2  0
  4  6  2  0
  4  7  1  0
  7  8  2  0
  8  9  1  0
  9 10  2  0
 10 11  1  0
 11 12  2  0
 12 13  1  0
 13 14  1  0
 14 15  2  0
 15 16  1  0
 16 17  1  0
 17 18  1  0
 18 19  2  0
 19 20  1  0
 20 21  2  0
 21 22  1  0
 22 23  1  0
 23 24  1  0
 24 25  2  0
 24 26  1  0
 26 27  1  0
 27 28  1  0
 28 29  1  0
 29 30  1  0
 30 31  1  0
 31 32  1  0
 32 33  1  0
 32 34  1  0
 22 35  2  0
 16 36  2  0
 36 37  1  0
 37 38  2  0
 38 39  1  0
 12  7  1  0
 38 14  1  0
 35 18  1  0
 33 27  1  0
 34 29  1  0
M  END
>  <Ki>  (1) 
nan

>  <IC50>  (1) 
 51

$$$$
