325624
     RDKit          2D

 36 40  0  0  0  0  0  0  0  0999 V2000
   -5.0490   -8.3433    0.0000 C   0  0  0  0  0  0  0  0  0  0  0  0
   -3.7500   -9.0933    0.0000 C   0  0  0  0  0  0  0  0  0  0  0  0
   -2.4510   -9.8433    0.0000 C   0  0  0  0  0  0  0  0  0  0  0  0
   -4.5000  -10.3923    0.0000 C   0  0  0  0  0  0  0  0  0  0  0  0
   -3.0000   -7.7942    0.0000 O   0  0  0  0  0  0  0  0  0  0  0  0
   -1.5000   -7.7942    0.0000 C   0  0  0  0  0  0  0  0  0  0  0  0
   -0.7500   -9.0933    0.0000 O   0  0  0  0  0  0  0  0  0  0  0  0
   -0.7500   -6.4952    0.0000 N   0  0  0  0  0  0  0  0  0  0  0  0
   -1.5000   -5.1962    0.0000 C   0  0  0  0  0  0  0  0  0  0  0  0
   -0.7500   -3.8971    0.0000 C   0  0  0  0  0  0  0  0  0  0  0  0
    0.7500   -3.8971    0.0000 C   0  0  0  0  0  0  0  0  0  0  0  0
    1.5000   -5.1962    0.0000 C   0  0  0  0  0  0  0  0  0  0  0  0
    0.7500   -6.4952    0.0000 C   0  0  0  0  0  0  0  0  0  0  0  0
    1.5000   -2.5981    0.0000 O   0  0  0  0  0  0  0  0  0  0  0  0
    0.7500   -1.2990    0.0000 C   0  0  0  0  0  0  0  0  0  0  0  0
    1.5000    0.0000    0.0000 C   0  0  0  0  0  0  0  0  0  0  0  0
    0.7500    1.2990    0.0000 C   0  0  0  0  0  0  0  0  0  0  0  0
   -0.7500    1.2990    0.0000 C   0  0  0  0  0  0  0  0  0  0  0  0
   -1.5000    2.5981    0.0000 C   0  0  0  0  0  0  0  0  0  0  0  0
   -0.7500    3.8971    0.0000 O   0  0  0  0  0  0  0  0  0  0  0  0
   -3.0000    2.5981    0.0000 C   0  0  0  0  0  0  0  0  0  0  0  0
   -3.7500    1.2990    0.0000 C   0  0  0  0  0  0  0  0  0  0  0  0
   -5.2172    1.6109    0.0000 N   0  0  0  0  0  0  0  0  0  0  0  0
   -5.3740    3.1027    0.0000 C   0  0  0  0  0  0  0  0  0  0  0  0
   -6.5875    3.9844    0.0000 C   0  0  0  0  0  0  0  0  0  0  0  0
   -6.4307    5.4761    0.0000 C   0  0  0  0  0  0  0  0  0  0  0  0
   -5.0604    6.0863    0.0000 C   0  0  0  0  0  0  0  0  0  0  0  0
   -3.8469    5.2046    0.0000 C   0  0  0  0  0  0  0  0  0  0  0  0
   -4.0037    3.7128    0.0000 C   0  0  0  0  0  0  0  0  0  0  0  0
   -7.6443    6.3578    0.0000 C   0  0  0  0  0  0  0  0  0  0  0  0
   -8.8578    7.2395    0.0000 N   0  0  0  0  0  0  0  0  0  0  0  0
   -3.0000    0.0000    0.0000 C   0  0  0  0  0  0  0  0  0  0  0  0
   -2.7395   -1.4772    0.0000 C   0  0  0  0  0  0  0  0  0  0  0  0
   -4.4095   -0.5130    0.0000 C   0  0  0  0  0  0  0  0  0  0  0  0
   -1.5000    0.0000    0.0000 C   0  0  0  0  0  0  0  0  0  0  0  0
   -0.7500   -1.2990    0.0000 C   0  0  0  0  0  0  0  0  0  0  0  0
  1  2  1  0
  2  3  1  0
  2  4  1  0
  2  5  1  0
  5  6  1  0
  6  7  2  0
  6  8  1  0
  8  9  1  0
  9 10  1  0
 10 11  1  0
 11 12  1  0
 12 13  1  0
 11 14  1  0
 14 15  1  0
 15 16  2  0
 16 17  1  0
 17 18  2  0
 18 19  1  0
 19 20  2  0
 19 21  1  0
 21 22  2  0
 22 23  1  0
 23 24  1  0
 24 25  2  0
 25 26  1  0
 26 27  2  0
 27 28  1  0
 28 29  2  0
 26 30  1  0
 30 31  3  0
 22 32  1  0
 32 33  1  0
 32 34  1  0
 32 35  1  0
 35 36  2  0
 13  8  1  0
 36 15  1  0
 35 18  1  0
 29 21  1  0
 29 24  1  0
M  END
>  <Ki>  (1) 
nan

>  <IC50>  (1) 
 52.708

$$$$
