51100793
     RDKit          2D

 63 69  0  0  0  0  0  0  0  0999 V2000
   -3.0000    2.5981    0.0000 C   0  0  0  0  0  0  0  0  0  0  0  0
   -1.5000    2.5981    0.0000 C   0  0  0  0  0  0  0  0  0  0  0  0
   -0.7500    3.8971    0.0000 C   0  0  0  0  0  0  0  0  0  0  0  0
   -0.7500    1.2990    0.0000 C   0  0  0  0  0  0  0  0  0  0  0  0
   -1.5000    0.0000    0.0000 C   0  0  0  0  0  0  0  0  0  0  0  0
   -0.7500   -1.2990    0.0000 C   0  0  0  0  0  0  0  0  0  0  0  0
   -1.5000   -2.5981    0.0000 C   0  0  0  0  0  0  0  0  0  0  0  0
   -0.8899   -3.9684    0.0000 O   0  0  0  0  0  0  0  0  0  0  0  0
   -2.0046   -4.9721    0.0000 N   0  0  0  0  0  0  0  0  0  0  0  0
   -3.3037   -4.2221    0.0000 C   0  0  0  0  0  0  0  0  0  0  0  0
   -4.6740   -4.8322    0.0000 C   0  0  0  0  0  0  0  0  0  0  0  0
   -4.8308   -6.3240    0.0000 O   0  0  0  0  0  0  0  0  0  0  0  0
   -5.8875   -3.9505    0.0000 N   0  0  0  0  0  0  0  0  0  0  0  0
   -7.2578   -4.5606    0.0000 C   0  0  0  0  0  0  0  0  0  0  0  0
   -8.4713   -3.6789    0.0000 C   0  0  0  0  0  0  0  0  0  0  0  0
   -8.3145   -2.1872    0.0000 O   0  0  0  0  0  0  0  0  0  0  0  0
   -9.8417   -4.2890    0.0000 N   0  0  0  0  0  0  0  0  0  0  0  0
  -11.0552   -3.4074    0.0000 C   0  0  0  0  0  0  0  0  0  0  0  0
  -10.8984   -1.9156    0.0000 C   0  0  0  0  0  0  0  0  0  0  0  0
  -12.1119   -1.0339    0.0000 C   0  0  0  0  0  0  0  0  0  0  0  0
  -13.4822   -1.6440    0.0000 C   0  0  0  0  0  0  0  0  0  0  0  0
  -13.6390   -3.1358    0.0000 C   0  0  0  0  0  0  0  0  0  0  0  0
  -15.0093   -3.7459    0.0000 N   0  0  0  0  0  0  0  0  0  0  0  0
  -16.2229   -2.8642    0.0000 C   0  0  0  0  0  0  0  0  0  0  0  0
  -16.0661   -1.3724    0.0000 N   0  0  0  0  0  0  0  0  0  0  0  0
  -17.2796   -0.4908    0.0000 C   0  0  0  0  0  0  0  0  0  0  0  0
  -18.6499   -1.1009    0.0000 C   0  0  0  0  0  0  0  0  0  0  0  0
  -19.8634   -0.2192    0.0000 Cl  0  0  0  0  0  0  0  0  0  0  0  0
  -18.8067   -2.5927    0.0000 C   0  0  0  0  0  0  0  0  0  0  0  0
  -20.1770   -3.2028    0.0000 N   0  0  0  0  0  0  0  0  0  0  0  0
  -20.3338   -4.6945    0.0000 C   0  0  0  0  0  0  0  0  0  0  0  0
  -19.1203   -5.5762    0.0000 C   0  0  0  0  0  0  0  0  0  0  0  0
  -19.2771   -7.0680    0.0000 C   0  0  0  0  0  0  0  0  0  0  0  0
  -20.6474   -7.6781    0.0000 C   0  0  0  0  0  0  0  0  0  0  0  0
  -21.8609   -6.7964    0.0000 C   0  0  0  0  0  0  0  0  0  0  0  0
  -21.7041   -5.3046    0.0000 C   0  0  0  0  0  0  0  0  0  0  0  0
  -22.9177   -4.4230    0.0000 S   0  0  0  0  0  0  0  0  0  0  0  0
  -22.0360   -3.2094    0.0000 O   0  0  0  0  0  0  0  0  0  0  0  0
  -23.7993   -5.6365    0.0000 O   0  0  0  0  0  0  0  0  0  0  0  0
  -24.1312   -3.5413    0.0000 C   0  0  0  0  0  0  0  0  0  0  0  0
  -25.5015   -4.1514    0.0000 C   0  0  0  0  0  0  0  0  0  0  0  0
  -23.9744   -2.0495    0.0000 C   0  0  0  0  0  0  0  0  0  0  0  0
  -17.5932   -3.4743    0.0000 N   0  0  0  0  0  0  0  0  0  0  0  0
  -12.4255   -4.0175    0.0000 C   0  0  0  0  0  0  0  0  0  0  0  0
   -2.9918   -2.7549    0.0000 C   0  0  0  0  0  0  0  0  0  0  0  0
   -3.9955   -1.6402    0.0000 C   0  0  0  0  0  0  0  0  0  0  0  0
   -3.5320   -0.2136    0.0000 C   0  0  0  0  0  0  0  0  0  0  0  0
   -4.5356    0.9012    0.0000 C   0  0  0  0  0  0  0  0  0  0  0  0
   -6.0029    0.5893    0.0000 C   0  0  0  0  0  0  0  0  0  0  0  0
   -7.0066    1.7040    0.0000 C   0  0  0  0  0  0  0  0  0  0  0  0
   -6.5430    3.1306    0.0000 N   0  0  0  0  0  0  0  0  0  0  0  0
   -5.0758    3.4425    0.0000 C   0  0  0  0  0  0  0  0  0  0  0  0
   -4.6123    4.8690    0.0000 C   0  0  0  0  0  0  0  0  0  0  0  0
   -5.6160    5.9838    0.0000 O   0  0  0  0  0  0  0  0  0  0  0  0
   -7.0832    5.6719    0.0000 C   0  0  0  0  0  0  0  0  0  0  0  0
   -7.5467    4.2453    0.0000 C   0  0  0  0  0  0  0  0  0  0  0  0
   -6.4664   -0.8373    0.0000 C   0  0  0  0  0  0  0  0  0  0  0  0
   -5.4627   -1.9520    0.0000 C   0  0  0  0  0  0  0  0  0  0  0  0
    0.7500   -1.2990    0.0000 C   0  0  0  0  0  0  0  0  0  0  0  0
    1.5000   -2.5981    0.0000 O   0  0  0  0  0  0  0  0  0  0  0  0
    1.5000   -0.0000    0.0000 C   0  0  0  0  0  0  0  0  0  0  0  0
    0.7500    1.2990    0.0000 C   0  0  0  0  0  0  0  0  0  0  0  0
    1.5000    2.5981    0.0000 O   0  0  0  0  0  0  0  0  0  0  0  0
  1  2  1  0
  2  3  1  0
  2  4  1  0
  4  5  2  0
  5  6  1  0
  6  7  1  0
  7  8  1  0
  8  9  1  0
  9 10  2  0
 10 11  1  0
 11 12  2  0
 11 13  1  0
 13 14  1  0
 14 15  1  0
 15 16  2  0
 15 17  1  0
 17 18  1  0
 18 19  2  0
 19 20  1  0
 20 21  2  0
 21 22  1  0
 22 23  1  0
 23 24  1  0
 24 25  2  0
 25 26  1  0
 26 27  2  0
 27 28  1  0
 27 29  1  0
 29 30  1  0
 30 31  1  0
 31 32  2  0
 32 33  1  0
 33 34  2  0
 34 35  1  0
 35 36  2  0
 36 37  1  0
 37 38  2  0
 37 39  2  0
 37 40  1  0
 40 41  1  0
 40 42  1  0
 29 43  2  0
 22 44  2  0
 10 45  1  0
 45 46  1  0
 46 47  2  0
 47 48  1  0
 48 49  2  0
 49 50  1  0
 50 51  1  0
 51 52  1  0
 52 53  1  0
 53 54  1  0
 54 55  1  0
 55 56  1  0
 49 57  1  0
 57 58  2  0
  6 59  2  0
 59 60  1  0
 59 61  1  0
 61 62  2  0
 62 63  1  0
 62  4  1  0
 45  7  2  0
 58 46  1  0
 44 18  1  0
 56 51  1  0
 43 24  1  0
 36 31  1  0
M  END
>  <Ki>  (1) 
nan

>  <IC50>  (1) 
 54

$$$$
