51404219
     RDKit          2D

 45 50  0  0  0  0  0  0  0  0999 V2000
    3.0000    0.0000    0.0000 C   0  0  0  0  0  0  0  0  0  0  0  0
    1.5000    0.0000    0.0000 N   0  0  0  0  0  0  0  0  0  0  0  0
    0.7500   -1.2990    0.0000 C   0  0  0  0  0  0  0  0  0  0  0  0
   -0.7500   -1.2990    0.0000 C   0  0  0  0  0  0  0  0  0  0  0  0
   -1.5000    0.0000    0.0000 N   0  0  0  0  0  0  0  0  0  0  0  0
   -0.7500    1.2990    0.0000 C   0  0  0  0  0  0  0  0  0  0  0  0
    0.7500    1.2990    0.0000 C   0  0  0  0  0  0  0  0  0  0  0  0
   -3.0000    0.0000    0.0000 C   0  0  0  0  0  0  0  0  0  0  0  0
   -3.7500   -1.2990    0.0000 O   0  0  0  0  0  0  0  0  0  0  0  0
   -3.7500    1.2990    0.0000 C   0  0  0  0  0  0  0  0  0  0  0  0
   -3.0000    2.5981    0.0000 C   0  0  0  0  0  0  0  0  0  0  0  0
   -3.7500    3.8971    0.0000 C   0  0  0  0  0  0  0  0  0  0  0  0
   -3.0000    5.1962    0.0000 N   0  0  0  0  0  0  0  0  0  0  0  0
   -1.5000    5.1962    0.0000 C   0  0  0  0  0  0  0  0  0  0  0  0
   -0.7500    3.8971    0.0000 O   0  0  0  0  0  0  0  0  0  0  0  0
   -0.7500    6.4952    0.0000 C   0  0  0  0  0  0  0  0  0  0  0  0
    0.7418    6.6520    0.0000 C   0  0  0  0  0  0  0  0  0  0  0  0
    1.0537    8.1192    0.0000 C   0  0  0  0  0  0  0  0  0  0  0  0
   -0.2454    8.8692    0.0000 C   0  0  0  0  0  0  0  0  0  0  0  0
   -1.3601    7.8655    0.0000 N   0  0  0  0  0  0  0  0  0  0  0  0
   -2.8273    8.1774    0.0000 C   0  0  0  0  0  0  0  0  0  0  0  0
   -3.2909    9.6040    0.0000 N   0  0  0  0  0  0  0  0  0  0  0  0
   -4.7581    9.9158    0.0000 C   0  0  0  0  0  0  0  0  0  0  0  0
   -5.2216   11.3424    0.0000 N   0  0  0  0  0  0  0  0  0  0  0  0
   -6.6888   11.6543    0.0000 C   0  0  0  0  0  0  0  0  0  0  0  0
   -7.1523   13.0809    0.0000 C   0  0  0  0  0  0  0  0  0  0  0  0
   -8.6196   13.3927    0.0000 C   0  0  0  0  0  0  0  0  0  0  0  0
   -9.0831   14.8193    0.0000 F   0  0  0  0  0  0  0  0  0  0  0  0
   -9.6233   12.2780    0.0000 C   0  0  0  0  0  0  0  0  0  0  0  0
   -9.1597   10.8514    0.0000 C   0  0  0  0  0  0  0  0  0  0  0  0
  -10.1634    9.7367    0.0000 F   0  0  0  0  0  0  0  0  0  0  0  0
   -7.6925   10.5396    0.0000 C   0  0  0  0  0  0  0  0  0  0  0  0
   -5.7618    8.8011    0.0000 N   0  0  0  0  0  0  0  0  0  0  0  0
   -5.2982    7.3745    0.0000 C   0  0  0  0  0  0  0  0  0  0  0  0
   -3.8310    7.0627    0.0000 C   0  0  0  0  0  0  0  0  0  0  0  0
   -3.7463    5.8506    0.0000 Cl  0  0  0  0  0  0  0  0  0  0  0  0
   -5.2500    3.8971    0.0000 C   0  0  0  0  0  0  0  0  0  0  0  0
   -6.0000    2.5981    0.0000 C   0  0  0  0  0  0  0  0  0  0  0  0
   -5.2500    1.2990    0.0000 C   0  0  0  0  0  0  0  0  0  0  0  0
   -6.0000    0.0000    0.0000 N   0  0  0  0  0  0  0  0  0  0  0  0
   -7.5000    0.0000    0.0000 C   0  0  0  0  0  0  0  0  0  0  0  0
   -8.2500   -1.2990    0.0000 C   0  0  0  0  0  0  0  0  0  0  0  0
   -7.5000   -2.5981    0.0000 O   0  0  0  0  0  0  0  0  0  0  0  0
   -6.0000   -2.5981    0.0000 C   0  0  0  0  0  0  0  0  0  0  0  0
   -5.2500   -1.2990    0.0000 C   0  0  0  0  0  0  0  0  0  0  0  0
  1  2  1  0
  2  3  1  0
  3  4  1  0
  4  5  1  0
  5  6  1  0
  6  7  1  0
  5  8  1  0
  8  9  2  0
  8 10  1  0
 10 11  2  0
 11 12  1  0
 12 13  1  0
 13 14  1  0
 14 15  2  0
 16 14  1  1
 16 17  1  0
 17 18  1  0
 18 19  1  0
 19 20  1  0
 20 21  1  0
 21 22  2  0
 22 23  1  0
 23 24  1  0
 24 25  1  0
 25 26  2  0
 26 27  1  0
 27 28  1  0
 27 29  2  0
 29 30  1  0
 30 31  1  0
 30 32  2  0
 23 33  2  0
 33 34  1  0
 34 35  2  0
 35 36  1  0
 12 37  2  0
 37 38  1  0
 38 39  2  0
 39 40  1  0
 40 41  1  0
 41 42  1  0
 42 43  1  0
 43 44  1  0
 44 45  1  0
  7  2  1  0
 39 10  1  0
 45 40  1  0
 20 16  1  0
 35 21  1  0
 32 25  1  0
M  END
>  <Ki>  (1) 
nan

>  <IC50>  (1) 
 60

$$$$
