51073976
     RDKit          2D

 30 34  0  0  0  0  0  0  0  0999 V2000
    4.6740   -4.8322    0.0000 C   0  0  0  0  0  0  0  0  0  0  0  0
    3.3037   -4.2221    0.0000 N   0  0  0  0  0  0  0  0  0  0  0  0
    2.9918   -2.7549    0.0000 C   0  0  0  0  0  0  0  0  0  0  0  0
    1.5000   -2.5981    0.0000 C   0  0  0  0  0  0  0  0  0  0  0  0
    0.8899   -3.9684    0.0000 C   0  0  0  0  0  0  0  0  0  0  0  0
    2.0046   -4.9721    0.0000 N   0  0  0  0  0  0  0  0  0  0  0  0
    0.7500   -1.2990    0.0000 C   0  0  0  0  0  0  0  0  0  0  0  0
    1.5000    0.0000    0.0000 C   0  0  0  0  0  0  0  0  0  0  0  0
    0.7500    1.2990    0.0000 N   0  0  0  0  0  0  0  0  0  0  0  0
   -0.7500    1.2990    0.0000 C   0  0  0  0  0  0  0  0  0  0  0  0
   -1.7537    2.4138    0.0000 N   0  0  0  0  0  0  0  0  0  0  0  0
   -3.1240    1.8037    0.0000 C   0  0  0  0  0  0  0  0  0  0  0  0
   -2.9672    0.3119    0.0000 C   0  0  0  0  0  0  0  0  0  0  0  0
   -4.0819   -0.6918    0.0000 C   0  0  0  0  0  0  0  0  0  0  0  0
   -3.9251   -2.1836    0.0000 C   0  0  0  0  0  0  0  0  0  0  0  0
   -5.2955   -2.7937    0.0000 N   0  0  0  0  0  0  0  0  0  0  0  0
   -6.2992   -1.6790    0.0000 N   0  0  0  0  0  0  0  0  0  0  0  0
   -7.7909   -1.8358    0.0000 C   0  0  0  0  0  0  0  0  0  0  0  0
   -8.6726   -0.6223    0.0000 C   0  0  0  0  0  0  0  0  0  0  0  0
   -8.0625    0.7481    0.0000 C   0  0  0  0  0  0  0  0  0  0  0  0
   -8.9442    1.9616    0.0000 C   0  0  0  0  0  0  0  0  0  0  0  0
  -10.4360    1.8048    0.0000 C   0  0  0  0  0  0  0  0  0  0  0  0
  -11.0461    0.4345    0.0000 C   0  0  0  0  0  0  0  0  0  0  0  0
  -10.1644   -0.7791    0.0000 C   0  0  0  0  0  0  0  0  0  0  0  0
  -12.5379    0.2777    0.0000 N   0  0  0  0  0  4  0  0  0  0  0  0
  -13.4195    1.4912    0.0000 O   0  0  0  0  0  1  0  0  0  0  0  0
  -13.1480   -1.0926    0.0000 O   0  0  0  0  0  0  0  0  0  0  0  0
   -5.5492   -0.3800    0.0000 C   0  0  0  0  0  0  0  0  0  0  0  0
   -1.5000    0.0000    0.0000 C   0  0  0  0  0  0  0  0  0  0  0  0
   -0.7500   -1.2990    0.0000 C   0  0  0  0  0  0  0  0  0  0  0  0
  1  2  1  0
  2  3  1  0
  3  4  2  0
  4  5  1  0
  5  6  2  0
  4  7  1  0
  7  8  2  0
  8  9  1  0
  9 10  2  0
 10 11  1  0
 11 12  1  0
 12 13  2  0
 13 14  1  0
 14 15  1  0
 15 16  2  0
 16 17  1  0
 17 18  1  0
 18 19  1  0
 19 20  2  0
 20 21  1  0
 21 22  2  0
 22 23  1  0
 23 24  2  0
 23 25  1  0
 25 26  1  0
 25 27  2  0
 17 28  1  0
 13 29  1  0
 29 30  2  0
  6  2  1  0
 30  7  1  0
 29 10  1  0
 28 14  2  0
 24 19  1  0
M  CHG  2  25   1  26  -1
M  END
>  <Ki>  (1) 
nan

>  <IC50>  (1) 
 70

$$$$
