325750
     RDKit          2D

 36 42  0  0  0  0  0  0  0  0999 V2000
    0.2061   -6.5545    0.0000 C   0  0  0  0  0  0  0  0  0  0  0  0
   -0.1568   -5.0991    0.0000 C   0  0  0  0  0  0  0  0  0  0  0  0
    1.3396   -4.9944    0.0000 C   0  0  0  0  0  0  0  0  0  0  0  0
    0.0000   -3.6073    0.0000 C   0  0  0  0  0  0  0  0  0  0  0  0
    1.2135   -2.7256    0.0000 N   0  0  0  0  0  0  0  0  0  0  0  0
    0.7500   -1.2990    0.0000 C   0  0  0  0  0  0  0  0  0  0  0  0
    1.5000    0.0000    0.0000 C   0  0  0  0  0  0  0  0  0  0  0  0
    0.7500    1.2990    0.0000 C   0  0  0  0  0  0  0  0  0  0  0  0
    1.5000    2.5981    0.0000 Br  0  0  0  0  0  0  0  0  0  0  0  0
   -0.7500    1.2990    0.0000 C   0  0  0  0  0  0  0  0  0  0  0  0
   -1.5000    0.0000    0.0000 C   0  0  0  0  0  0  0  0  0  0  0  0
   -0.7500   -1.2990    0.0000 C   0  0  0  0  0  0  0  0  0  0  0  0
   -1.2135   -2.7256    0.0000 C   0  0  0  0  0  0  0  0  0  0  0  0
   -2.5838   -3.3357    0.0000 C   0  0  0  0  0  0  0  0  0  0  0  0
   -3.7974   -2.4540    0.0000 O   0  0  0  0  0  0  0  0  0  0  0  0
   -2.7406   -4.8275    0.0000 C   0  0  0  0  0  0  0  0  0  0  0  0
   -4.1110   -5.4376    0.0000 C   0  0  0  0  0  0  0  0  0  0  0  0
   -4.2677   -6.9294    0.0000 C   0  0  0  0  0  0  0  0  0  0  0  0
   -3.0542   -7.8111    0.0000 C   0  0  0  0  0  0  0  0  0  0  0  0
   -3.2110   -9.3029    0.0000 O   0  0  0  0  0  0  0  0  0  0  0  0
   -4.5813   -9.9130    0.0000 C   0  0  0  0  0  0  0  0  0  0  0  0
   -5.8804   -9.1630    0.0000 C   0  0  0  0  0  0  0  0  0  0  0  0
   -6.9951  -10.1667    0.0000 C   0  0  0  0  0  0  0  0  0  0  0  0
   -6.3850  -11.5370    0.0000 O   0  0  0  0  0  0  0  0  0  0  0  0
   -4.8932  -11.3802    0.0000 C   0  0  0  0  0  0  0  0  0  0  0  0
   -3.4260  -11.0683    0.0000 C   0  0  0  0  0  0  0  0  0  0  0  0
   -2.4223  -12.1830    0.0000 C   0  0  0  0  0  0  0  0  0  0  0  0
   -2.8858  -13.6096    0.0000 N   0  0  0  0  0  0  0  0  0  0  0  0
   -4.3530  -13.9215    0.0000 C   0  0  0  0  0  0  0  0  0  0  0  0
   -5.3567  -12.8068    0.0000 C   0  0  0  0  0  0  0  0  0  0  0  0
   -1.8821  -14.7243    0.0000 C   0  0  0  0  0  0  0  0  0  0  0  0
   -1.9606  -16.2223    0.0000 C   0  0  0  0  0  0  0  0  0  0  0  0
   -0.4627  -16.3008    0.0000 O   0  0  0  0  0  0  0  0  0  0  0  0
   -0.3842  -14.8028    0.0000 C   0  0  0  0  0  0  0  0  0  0  0  0
   -1.6839   -7.2010    0.0000 C   0  0  0  0  0  0  0  0  0  0  0  0
   -1.5271   -5.7092    0.0000 C   0  0  0  0  0  0  0  0  0  0  0  0
  1  2  1  0
  2  3  1  0
  2  4  1  0
  4  5  1  0
  5  6  1  0
  6  7  2  0
  7  8  1  0
  8  9  1  0
  8 10  2  0
 10 11  1  0
 11 12  2  0
 12 13  1  0
 13 14  1  0
 14 15  2  0
 14 16  1  0
 16 17  2  0
 17 18  1  0
 18 19  2  0
 19 20  1  0
 20 21  1  0
 21 22  1  0
 22 23  1  0
 23 24  1  0
 24 25  1  0
 25 26  1  0
 26 27  1  0
 27 28  1  0
 28 29  1  0
 29 30  1  0
 28 31  1  0
 31 32  1  0
 32 33  1  0
 33 34  1  0
 19 35  1  0
 35 36  2  0
 36  2  1  0
 13  4  2  0
 36 16  1  0
 12  6  1  0
 25 21  1  0
 30 25  1  0
 34 31  1  0
M  END
>  <Ki>  (1) 
nan

>  <IC50>  (1) 
 79.41

$$$$
