50715467
     RDKit          2D

 36 40  0  0  0  0  0  0  0  0999 V2000
    3.7500   -1.2990    0.0000 C   0  0  0  0  0  0  0  0  0  0  0  0
    3.0000    0.0000    0.0000 N   0  0  0  0  0  0  0  0  0  0  0  0
    1.5000    0.0000    0.0000 C   0  0  0  0  0  0  0  0  0  0  0  0
    0.7500   -1.2990    0.0000 C   0  0  0  0  0  0  0  0  0  0  0  0
   -0.7500   -1.2990    0.0000 C   0  0  0  0  0  0  0  0  0  0  0  0
   -1.5000    0.0000    0.0000 C   0  0  0  0  0  0  0  0  0  0  0  0
   -2.9697    0.3000    0.0000 C   0  0  0  0  0  0  0  0  0  0  0  0
   -4.1316    1.2487    0.0000 C   0  0  0  0  0  0  0  0  0  0  0  0
   -4.7195    2.6287    0.0000 C   0  0  0  0  0  0  0  0  0  0  0  0
   -4.5988    4.1238    0.0000 C   0  0  0  0  0  0  0  0  0  0  0  0
   -3.7971    5.3916    0.0000 C   0  0  0  0  0  0  0  0  0  0  0  0
   -2.4981    6.1416    0.0000 N   0  0  0  0  0  0  0  0  0  0  0  0
   -0.9993    6.2020    0.0000 C   0  0  0  0  0  0  0  0  0  0  0  0
    0.1932    7.1648    0.0000 N   0  0  0  0  0  0  0  0  0  0  0  0
    1.6737    6.9242    0.0000 C   0  0  0  0  0  0  0  0  0  0  0  0
    2.2056    5.5217    0.0000 C   0  0  0  0  0  0  0  0  0  0  0  0
    3.6862    5.2811    0.0000 Cl  0  0  0  0  0  0  0  0  0  0  0  0
    1.2570    4.3598    0.0000 C   0  0  0  0  0  0  0  0  0  0  0  0
    1.4976    2.8792    0.0000 N   0  0  0  0  0  0  0  0  0  0  0  0
    0.7500    1.2990    0.0000 C   0  0  0  0  0  0  0  0  0  0  0  0
   -0.7500    1.2990    0.0000 C   0  0  0  0  0  0  0  0  0  0  0  0
    0.3559    5.5590    0.0000 N   0  0  0  0  0  0  0  0  0  0  0  0
   -5.3196    5.5680    0.0000 C   0  0  0  0  0  0  0  0  0  0  0  0
   -6.4424    4.5734    0.0000 C   0  0  0  0  0  0  0  0  0  0  0  0
   -6.1423    3.1037    0.0000 C   0  0  0  0  0  0  0  0  0  0  0  0
   -7.2651    2.1090    0.0000 N   0  0  0  0  0  0  0  0  0  0  0  0
   -8.6879    2.5840    0.0000 C   0  0  0  0  0  0  0  0  0  0  0  0
   -9.8107    1.5893    0.0000 C   0  0  0  0  0  0  0  0  0  0  0  0
   -9.5106    0.1196    0.0000 N   0  0  0  0  0  0  0  0  0  0  0  0
  -10.6334   -0.8751    0.0000 C   0  0  0  0  0  0  0  0  0  0  0  0
   -8.0878   -0.3554    0.0000 C   0  0  0  0  0  0  0  0  0  0  0  0
   -6.9651    0.6393    0.0000 C   0  0  0  0  0  0  0  0  0  0  0  0
    3.7500    1.2990    0.0000 S   0  0  0  0  0  0  0  0  0  0  0  0
    4.5000    2.5981    0.0000 C   0  0  0  0  0  0  0  0  0  0  0  0
    2.4510    2.0490    0.0000 O   0  0  0  0  0  0  0  0  0  0  0  0
    5.0490    0.5490    0.0000 O   0  0  0  0  0  0  0  0  0  0  0  0
  1  2  1  0
  2  3  1  0
  3  4  2  0
  4  5  1  0
  5  6  2  0
  6  7  1  0
  7  8  1  0
  8  9  1  0
  9 10  1  0
 10 11  2  0
 11 12  1  0
 12 13  1  0
 13 14  1  0
 14 15  2  0
 15 16  1  0
 16 17  1  0
 16 18  2  0
 18 19  1  0
 19 20  1  0
 20 21  2  0
 18 22  1  0
 11 23  1  0
 23 24  2  0
 24 25  1  0
 25 26  1  0
 26 27  1  0
 27 28  1  0
 28 29  1  0
 29 30  1  0
 29 31  1  0
 31 32  1  0
  2 33  1  0
 33 34  1  0
 33 35  2  0
 33 36  2  0
 20  3  1  0
 32 26  1  0
 21  6  1  0
 25  9  2  0
 22 13  2  0
M  END
>  <Ki>  (1) 
nan

>  <IC50>  (1) 
 3.4

$$$$
