50898702
     RDKit          2D

 32 36  0  0  0  0  0  0  0  0999 V2000
  -16.6650   -5.6536    0.0000 C   0  0  0  0  0  0  0  0  0  0  0  0
  -15.1732   -5.4968    0.0000 N   0  0  0  0  0  0  0  0  0  0  0  0
  -14.5631   -4.1264    0.0000 C   0  0  0  0  0  0  0  0  0  0  0  0
  -13.0713   -3.9697    0.0000 C   0  0  0  0  0  0  0  0  0  0  0  0
  -12.1896   -5.1832    0.0000 N   0  0  0  0  0  0  0  0  0  0  0  0
  -10.6978   -5.0264    0.0000 C   0  0  0  0  0  0  0  0  0  0  0  0
  -10.0877   -3.6561    0.0000 C   0  0  0  0  0  0  0  0  0  0  0  0
   -8.5959   -3.4993    0.0000 C   0  0  0  0  0  0  0  0  0  0  0  0
   -7.9858   -2.1290    0.0000 C   0  0  0  0  0  0  0  0  0  0  0  0
   -8.8675   -0.9154    0.0000 C   0  0  0  0  0  0  0  0  0  0  0  0
   -8.2574    0.4549    0.0000 N   0  0  0  0  0  0  0  0  0  0  0  0
   -6.7656    0.6117    0.0000 C   0  0  0  0  0  0  0  0  0  0  0  0
   -5.8840   -0.6018    0.0000 O   0  0  0  0  0  0  0  0  0  0  0  0
   -6.1555    1.9820    0.0000 C   0  0  0  0  0  0  0  0  0  0  0  0
   -6.9055    3.2810    0.0000 N   0  0  0  0  0  0  0  0  0  0  0  0
   -5.9018    4.3958    0.0000 N   0  0  0  0  0  0  0  0  0  0  0  0
   -4.5315    3.7856    0.0000 C   0  0  0  0  0  0  0  0  0  0  0  0
   -4.6883    2.2939    0.0000 C   0  0  0  0  0  0  0  0  0  0  0  0
   -3.5736    1.2902    0.0000 N   0  0  0  0  0  0  0  0  0  0  0  0
   -2.1470    1.7537    0.0000 C   0  0  0  0  0  0  0  0  0  0  0  0
   -1.8351    3.2209    0.0000 N   0  0  0  0  0  0  0  0  0  0  0  0
   -0.4086    3.6844    0.0000 C   0  0  0  0  0  0  0  0  0  0  0  0
    0.7062    2.6807    0.0000 N   0  0  0  0  0  0  0  0  0  0  0  0
    0.3943    1.2135    0.0000 C   0  0  0  0  0  0  0  0  0  0  0  0
    1.2760    0.0000    0.0000 S   0  0  0  0  0  0  0  0  0  0  0  0
    0.3943   -1.2135    0.0000 C   0  0  0  0  0  0  0  0  0  0  0  0
   -1.0323   -0.7500    0.0000 C   0  0  0  0  0  0  0  0  0  0  0  0
   -1.0323    0.7500    0.0000 C   0  0  0  0  0  0  0  0  0  0  0  0
  -10.3593   -1.0722    0.0000 C   0  0  0  0  0  0  0  0  0  0  0  0
  -10.9694   -2.4425    0.0000 C   0  0  0  0  0  0  0  0  0  0  0  0
  -12.7997   -6.5535    0.0000 C   0  0  0  0  0  0  0  0  0  0  0  0
  -14.2915   -6.7103    0.0000 C   0  0  0  0  0  0  0  0  0  0  0  0
  1  2  1  0
  2  3  1  0
  3  4  1  0
  4  5  1  0
  5  6  1  0
  6  7  1  0
  7  8  2  0
  8  9  1  0
  9 10  2  0
 10 11  1  0
 11 12  1  0
 12 13  2  0
 12 14  1  0
 14 15  2  0
 15 16  1  0
 16 17  1  0
 17 18  2  0
 18 19  1  0
 19 20  1  0
 20 21  2  0
 21 22  1  0
 22 23  2  0
 23 24  1  0
 24 25  1  0
 25 26  1  0
 26 27  2  0
 27 28  1  0
 10 29  1  0
 29 30  2  0
  5 31  1  0
 31 32  1  0
 32  2  1  0
 30  7  1  0
 18 14  1  0
 28 20  1  0
 28 24  2  0
M  END
>  <Ki>  (1) 
nan

>  <IC50>  (1) 
 94

$$$$
