50103710
     RDKit          2D

 26 29  0  0  0  0  0  0  0  0999 V2000
    3.0000    0.0000    0.0000 N   0  0  0  0  0  0  0  0  0  0  0  0
    1.5000    0.0000    0.0000 C   0  0  0  0  0  0  0  0  0  0  0  0
    0.7500   -1.2990    0.0000 N   0  0  0  0  0  0  0  0  0  0  0  0
   -0.7500   -1.2990    0.0000 C   0  0  0  0  0  0  0  0  0  0  0  0
   -1.5000    0.0000    0.0000 C   0  0  0  0  0  0  0  0  0  0  0  0
   -0.7500    1.2990    0.0000 C   0  0  0  0  0  0  0  0  0  0  0  0
    0.7500    1.2990    0.0000 C   0  0  0  0  0  0  0  0  0  0  0  0
    1.3978    2.8978    0.0000 O   0  0  0  0  0  0  0  0  0  0  0  0
    1.0095    4.3467    0.0000 C   0  0  0  0  0  0  0  0  0  0  0  0
   -0.0511    5.4073    0.0000 C   0  0  0  0  0  0  0  0  0  0  0  0
    1.0095    6.4680    0.0000 C   0  0  0  0  0  0  0  0  0  0  0  0
    0.6213    7.9169    0.0000 C   0  0  0  0  0  0  0  0  0  0  0  0
    1.6820    8.9775    0.0000 F   0  0  0  0  0  0  0  0  0  0  0  0
   -0.8276    8.3051    0.0000 C   0  0  0  0  0  0  0  0  0  0  0  0
   -1.8882    7.2444    0.0000 C   0  0  0  0  0  0  0  0  0  0  0  0
   -1.5000    5.7956    0.0000 C   0  0  0  0  0  0  0  0  0  0  0  0
   -2.9489    5.4073    0.0000 O   0  0  0  0  0  0  0  0  0  0  0  0
   -4.0095    4.3467    0.0000 C   0  0  0  0  0  0  0  0  0  0  0  0
   -4.3978    2.8978    0.0000 C   0  0  0  0  0  0  0  0  0  0  0  0
   -4.0095    1.4489    0.0000 C   0  0  0  0  0  0  0  0  0  0  0  0
   -5.3461    0.7679    0.0000 N   0  0  0  0  0  0  0  0  0  0  0  0
   -5.1114   -0.7136    0.0000 N   0  0  0  0  0  0  0  0  0  0  0  0
   -3.6299   -0.9483    0.0000 C   0  0  0  0  0  0  0  0  0  0  0  0
   -2.9489   -2.2848    0.0000 C   0  0  0  0  0  0  0  0  0  0  0  0
   -2.2679   -3.6213    0.0000 N   0  0  0  0  0  0  0  0  0  0  0  0
   -2.9489    0.3882    0.0000 C   0  0  0  0  0  0  0  0  0  0  0  0
  1  2  1  0
  2  3  2  0
  3  4  1  0
  4  5  2  0
  5  6  1  0
  6  7  2  0
  7  8  1  0
  8  9  1  0
  9 10  1  0
 10 11  2  0
 11 12  1  0
 12 13  1  0
 12 14  2  0
 14 15  1  0
 15 16  2  0
 16 17  1  0
 17 18  1  0
 18 19  1  0
 19 20  1  0
 20 21  2  0
 21 22  1  0
 22 23  1  0
 23 24  1  0
 24 25  3  0
 23 26  2  0
  7  2  1  0
 16 10  1  0
 26 20  1  0
  5 26  1  0
M  END
>  <Ki>  (1) 
nan

>  <IC50>  (1) 
 101

$$$$
