51100795
     RDKit          2D

 65 71  0  0  0  0  0  0  0  0999 V2000
    3.7500   -1.2990    0.0000 C   0  0  0  0  0  0  0  0  0  0  0  0
    3.0000    0.0000    0.0000 O   0  0  0  0  0  0  0  0  0  0  0  0
    1.5000    0.0000    0.0000 C   0  0  0  0  0  0  0  0  0  0  0  0
    0.7500   -1.2990    0.0000 C   0  0  0  0  0  0  0  0  0  0  0  0
   -0.7500   -1.2990    0.0000 C   0  0  0  0  0  0  0  0  0  0  0  0
   -1.5000    0.0000    0.0000 C   0  0  0  0  0  0  0  0  0  0  0  0
   -3.0000    0.0000    0.0000 N   0  0  0  0  0  0  0  0  0  0  0  0
   -3.7500    1.2990    0.0000 C   0  0  0  0  0  0  0  0  0  0  0  0
   -3.0000    2.5981    0.0000 O   0  0  0  0  0  0  0  0  0  0  0  0
   -5.2500    1.2990    0.0000 C   0  0  0  0  0  0  0  0  0  0  0  0
   -6.0000    2.5981    0.0000 N   0  0  0  0  0  0  0  0  0  0  0  0
   -7.5000    2.5981    0.0000 C   0  0  0  0  0  0  0  0  0  0  0  0
   -8.2500    1.2990    0.0000 O   0  0  0  0  0  0  0  0  0  0  0  0
   -8.2500    3.8971    0.0000 C   0  0  0  0  0  0  0  0  0  0  0  0
   -9.7418    4.0539    0.0000 N   0  0  0  0  0  0  0  0  0  0  0  0
  -10.0537    5.5211    0.0000 O   0  0  0  0  0  0  0  0  0  0  0  0
   -8.7546    6.2711    0.0000 C   0  0  0  0  0  0  0  0  0  0  0  0
   -7.6399    5.2674    0.0000 C   0  0  0  0  0  0  0  0  0  0  0  0
   -6.1727    5.5793    0.0000 C   0  0  0  0  0  0  0  0  0  0  0  0
   -5.1690    4.4646    0.0000 C   0  0  0  0  0  0  0  0  0  0  0  0
   -3.7018    4.7765    0.0000 C   0  0  0  0  0  0  0  0  0  0  0  0
   -3.2382    6.2030    0.0000 C   0  0  0  0  0  0  0  0  0  0  0  0
   -1.7710    6.5149    0.0000 C   0  0  0  0  0  0  0  0  0  0  0  0
   -1.3075    7.9415    0.0000 N   0  0  0  0  0  0  0  0  0  0  0  0
    0.1597    8.2534    0.0000 C   0  0  0  0  0  0  0  0  0  0  0  0
    0.6233    9.6799    0.0000 C   0  0  0  0  0  0  0  0  0  0  0  0
   -0.3804   10.7947    0.0000 O   0  0  0  0  0  0  0  0  0  0  0  0
   -1.8477   10.4828    0.0000 C   0  0  0  0  0  0  0  0  0  0  0  0
   -2.3112    9.0562    0.0000 C   0  0  0  0  0  0  0  0  0  0  0  0
   -4.2419    7.3178    0.0000 C   0  0  0  0  0  0  0  0  0  0  0  0
   -5.7091    7.0059    0.0000 C   0  0  0  0  0  0  0  0  0  0  0  0
   -8.5978    7.7629    0.0000 C   0  0  0  0  0  0  0  0  0  0  0  0
   -7.2275    8.3730    0.0000 C   0  0  0  0  0  0  0  0  0  0  0  0
   -7.0707    9.8648    0.0000 C   0  0  0  0  0  0  0  0  0  0  0  0
   -5.7004   10.4749    0.0000 C   0  0  0  0  0  0  0  0  0  0  0  0
   -5.5436   11.9667    0.0000 C   0  0  0  0  0  0  0  0  0  0  0  0
   -4.4869    9.5932    0.0000 C   0  0  0  0  0  0  0  0  0  0  0  0
   -8.2842   10.7465    0.0000 C   0  0  0  0  0  0  0  0  0  0  0  0
   -8.1274   12.2383    0.0000 O   0  0  0  0  0  0  0  0  0  0  0  0
   -9.6546   10.1364    0.0000 C   0  0  0  0  0  0  0  0  0  0  0  0
   -9.8113    8.6446    0.0000 C   0  0  0  0  0  0  0  0  0  0  0  0
  -11.1817    8.0345    0.0000 O   0  0  0  0  0  0  0  0  0  0  0  0
   -0.7500    1.2990    0.0000 C   0  0  0  0  0  0  0  0  0  0  0  0
    0.7500    1.2990    0.0000 C   0  0  0  0  0  0  0  0  0  0  0  0
    1.5000    2.5981    0.0000 N   0  0  0  0  0  0  0  0  0  0  0  0
    3.0000    2.5981    0.0000 C   0  0  0  0  0  0  0  0  0  0  0  0
    3.7500    1.2990    0.0000 N   0  0  0  0  0  0  0  0  0  0  0  0
    5.2500    1.2990    0.0000 C   0  0  0  0  0  0  0  0  0  0  0  0
    6.0000    2.5981    0.0000 C   0  0  0  0  0  0  0  0  0  0  0  0
    7.5000    2.5981    0.0000 Cl  0  0  0  0  0  0  0  0  0  0  0  0
    5.2500    3.8971    0.0000 C   0  0  0  0  0  0  0  0  0  0  0  0
    6.0000    5.1962    0.0000 N   0  0  0  0  0  0  0  0  0  0  0  0
    5.2500    6.4952    0.0000 C   0  0  0  0  0  0  0  0  0  0  0  0
    3.7500    6.4952    0.0000 C   0  0  0  0  0  0  0  0  0  0  0  0
    3.0000    7.7942    0.0000 C   0  0  0  0  0  0  0  0  0  0  0  0
    3.7500    9.0933    0.0000 C   0  0  0  0  0  0  0  0  0  0  0  0
    5.2500    9.0933    0.0000 C   0  0  0  0  0  0  0  0  0  0  0  0
    6.0000    7.7942    0.0000 C   0  0  0  0  0  0  0  0  0  0  0  0
    7.5000    7.7942    0.0000 S   0  0  0  0  0  0  0  0  0  0  0  0
    7.5000    6.2942    0.0000 O   0  0  0  0  0  0  0  0  0  0  0  0
    7.5000    9.2942    0.0000 O   0  0  0  0  0  0  0  0  0  0  0  0
    9.0000    7.7942    0.0000 C   0  0  0  0  0  0  0  0  0  0  0  0
    9.7500    9.0933    0.0000 C   0  0  0  0  0  0  0  0  0  0  0  0
    9.7500    6.4952    0.0000 C   0  0  0  0  0  0  0  0  0  0  0  0
    3.7500    3.8971    0.0000 N   0  0  0  0  0  0  0  0  0  0  0  0
  1  2  1  0
  2  3  1  0
  3  4  2  0
  4  5  1  0
  5  6  2  0
  6  7  1  0
  7  8  1  0
  8  9  2  0
  8 10  1  0
 10 11  1  0
 11 12  1  0
 12 13  2  0
 12 14  1  0
 14 15  2  0
 15 16  1  0
 16 17  1  0
 17 18  2  0
 18 19  1  0
 19 20  2  0
 20 21  1  0
 21 22  2  0
 22 23  1  0
 23 24  1  0
 24 25  1  0
 25 26  1  0
 26 27  1  0
 27 28  1  0
 28 29  1  0
 22 30  1  0
 30 31  2  0
 17 32  1  0
 32 33  2  0
 33 34  1  0
 34 35  1  0
 35 36  1  0
 35 37  1  0
 34 38  2  0
 38 39  1  0
 38 40  1  0
 40 41  2  0
 41 42  1  0
  6 43  1  0
 43 44  2  0
 44 45  1  0
 45 46  1  0
 46 47  2  0
 47 48  1  0
 48 49  2  0
 49 50  1  0
 49 51  1  0
 51 52  1  0
 52 53  1  0
 53 54  2  0
 54 55  1  0
 55 56  2  0
 56 57  1  0
 57 58  2  0
 58 59  1  0
 59 60  2  0
 59 61  2  0
 59 62  1  0
 62 63  1  0
 62 64  1  0
 51 65  2  0
 44  3  1  0
 65 46  1  0
 18 14  1  0
 31 19  1  0
 41 32  1  0
 58 53  1  0
 29 24  1  0
M  END
>  <Ki>  (1) 
nan

>  <IC50>  (1) 
 108

$$$$
