50266082
     RDKit          2D

 31 34  0  0  0  0  0  0  0  0999 V2000
    5.6183    1.9033    0.0000 C   0  0  0  0  0  0  0  0  0  0  0  0
    4.4047    1.0216    0.0000 N   0  0  0  0  0  0  0  0  0  0  0  0
    3.0344    1.6317    0.0000 C   0  0  0  0  0  0  0  0  0  0  0  0
    2.8776    3.1235    0.0000 O   0  0  0  0  0  0  0  0  0  0  0  0
    1.8209    0.7500    0.0000 C   0  0  0  0  0  0  0  0  0  0  0  0
    0.3943    1.2135    0.0000 C   0  0  0  0  0  0  0  0  0  0  0  0
    1.2760    0.0000    0.0000 C   0  0  0  0  0  0  0  0  0  0  0  0
    0.3943   -1.2135    0.0000 C   0  0  0  0  0  0  0  0  0  0  0  0
   -1.0323   -0.7500    0.0000 C   0  0  0  0  0  0  0  0  0  0  0  0
   -1.0323    0.7500    0.0000 C   0  0  0  0  0  0  0  0  0  0  0  0
    1.8209   -0.7500    0.0000 C   0  0  0  0  0  0  0  0  0  0  0  0
    3.0344   -1.6317    0.0000 N   0  0  0  0  0  0  0  0  0  0  0  0
    2.8776   -3.1235    0.0000 C   0  0  0  0  0  0  0  0  0  0  0  0
    1.5073   -3.7336    0.0000 N   0  0  0  0  0  0  0  0  0  0  0  0
    1.3505   -5.2253    0.0000 C   0  0  0  0  0  0  0  0  0  0  0  0
   -0.0198   -5.8355    0.0000 N   0  0  0  0  0  0  0  0  0  0  0  0
   -1.2333   -4.9538    0.0000 C   0  0  0  0  0  0  0  0  0  0  0  0
   -1.0765   -3.4620    0.0000 C   0  0  0  0  0  0  0  0  0  0  0  0
   -2.2901   -2.5803    0.0000 C   0  0  0  0  0  0  0  0  0  0  0  0
   -3.6604   -3.1904    0.0000 C   0  0  0  0  0  0  0  0  0  0  0  0
   -3.8172   -4.6822    0.0000 C   0  0  0  0  0  0  0  0  0  0  0  0
   -5.1875   -5.2923    0.0000 N   0  0  0  0  0  0  0  0  0  0  0  0
   -6.4010   -4.4106    0.0000 C   0  0  0  0  0  0  0  0  0  0  0  0
   -6.2442   -2.9188    0.0000 O   0  0  0  0  0  0  0  0  0  0  0  0
   -7.7713   -5.0207    0.0000 C   0  0  0  0  0  0  0  0  0  0  0  0
   -8.9849   -4.1391    0.0000 N   0  0  0  0  0  0  0  0  0  0  0  0
   -2.6037   -5.5639    0.0000 C   0  0  0  0  0  0  0  0  0  0  0  0
    2.5640   -6.1070    0.0000 N   0  0  0  0  0  0  0  0  0  0  0  0
    3.9343   -5.4969    0.0000 C   0  0  0  0  0  0  0  0  0  0  0  0
    4.0911   -4.0051    0.0000 C   0  0  0  0  0  0  0  0  0  0  0  0
    5.4615   -3.3950    0.0000 Cl  0  0  0  0  0  0  0  0  0  0  0  0
  1  2  1  0
  2  3  1  0
  3  4  2  0
  5  3  1  6
  5  6  1  0
  6  7  1  0
  7  8  1  0
  8  9  1  1
  9 10  2  0
  8 11  1  0
 11 12  1  6
 12 13  1  0
 13 14  2  0
 14 15  1  0
 15 16  1  0
 16 17  1  0
 17 18  2  0
 18 19  1  0
 19 20  2  0
 20 21  1  0
 21 22  1  0
 22 23  1  0
 23 24  2  0
 23 25  1  0
 25 26  1  0
 21 27  2  0
 15 28  2  0
 28 29  1  0
 29 30  2  0
 30 31  1  0
 11  5  1  0
 30 13  1  0
  6 10  1  1
 27 17  1  0
M  END
>  <Ki>  (1) 
nan

>  <IC50>  (1) 
 111

$$$$
