50715483
     RDKit          2D

 38 42  0  0  0  0  0  0  0  0999 V2000
    4.6349   -6.4430    0.0000 C   0  0  0  0  0  0  0  0  0  0  0  0
    3.6862   -5.2811    0.0000 O   0  0  0  0  0  0  0  0  0  0  0  0
    2.2056   -5.5217    0.0000 C   0  0  0  0  0  0  0  0  0  0  0  0
    1.6737   -6.9242    0.0000 C   0  0  0  0  0  0  0  0  0  0  0  0
    0.1932   -7.1648    0.0000 C   0  0  0  0  0  0  0  0  0  0  0  0
   -0.3388   -8.5674    0.0000 N   0  0  0  0  0  0  0  0  0  0  0  0
   -1.8193   -8.8080    0.0000 C   0  0  0  0  0  0  0  0  0  0  0  0
   -2.3512  -10.2105    0.0000 C   0  0  0  0  0  0  0  0  0  0  0  0
   -1.4026  -11.3724    0.0000 N   0  0  0  0  0  0  0  0  0  0  0  0
   -1.9345  -12.7749    0.0000 C   0  0  0  0  0  0  0  0  0  0  0  0
    0.0780  -11.1318    0.0000 C   0  0  0  0  0  0  0  0  0  0  0  0
    0.6099   -9.7293    0.0000 C   0  0  0  0  0  0  0  0  0  0  0  0
   -0.9993   -6.2020    0.0000 C   0  0  0  0  0  0  0  0  0  0  0  0
    0.3559   -5.5590    0.0000 C   0  0  0  0  0  0  0  0  0  0  0  0
    1.2570   -4.3598    0.0000 C   0  0  0  0  0  0  0  0  0  0  0  0
    1.4976   -2.8792    0.0000 N   0  0  0  0  0  0  0  0  0  0  0  0
    0.7500   -1.2990    0.0000 C   0  0  0  0  0  0  0  0  0  0  0  0
    1.5000    0.0000    0.0000 N   0  0  0  0  0  0  0  0  0  0  0  0
    0.7500    1.2990    0.0000 C   0  0  0  0  0  0  0  0  0  0  0  0
   -0.7500    1.2990    0.0000 C   0  0  0  0  0  0  0  0  0  0  0  0
   -1.5000    2.5981    0.0000 Cl  0  0  0  0  0  0  0  0  0  0  0  0
   -1.5000    0.0000    0.0000 C   0  0  0  0  0  0  0  0  0  0  0  0
   -0.7500   -1.2990    0.0000 N   0  0  0  0  0  0  0  0  0  0  0  0
   -2.9697   -0.3000    0.0000 N   0  0  0  0  0  0  0  0  0  0  0  0
   -4.1316   -1.2487    0.0000 C   0  0  0  0  0  0  0  0  0  0  0  0
   -4.7195   -2.6287    0.0000 C   0  0  0  0  0  0  0  0  0  0  0  0
   -4.5988   -4.1238    0.0000 C   0  0  0  0  0  0  0  0  0  0  0  0
   -6.0289   -3.5725    0.0000 C   0  0  0  0  0  0  0  0  0  0  0  0
   -6.5608   -2.1700    0.0000 C   0  0  0  0  0  0  0  0  0  0  0  0
   -5.6122   -1.0081    0.0000 C   0  0  0  0  0  0  0  0  0  0  0  0
   -6.1441    0.3944    0.0000 N   0  0  0  0  0  0  0  0  0  0  0  0
   -7.6247    0.6351    0.0000 C   0  0  0  0  0  0  0  0  0  0  0  0
   -5.1954    1.5563    0.0000 S   0  0  0  0  0  0  0  0  0  0  0  0
   -4.2467    2.7182    0.0000 C   0  0  0  0  0  0  0  0  0  0  0  0
   -4.0335    0.6077    0.0000 O   0  0  0  0  0  0  0  0  0  0  0  0
   -6.3573    2.5050    0.0000 O   0  0  0  0  0  0  0  0  0  0  0  0
   -3.7971   -5.3916    0.0000 C   0  0  0  0  0  0  0  0  0  0  0  0
   -2.4981   -6.1416    0.0000 C   0  0  0  0  0  0  0  0  0  0  0  0
  1  2  1  0
  2  3  1  0
  3  4  2  0
  4  5  1  0
  5  6  1  0
  6  7  1  0
  7  8  1  0
  8  9  1  0
  9 10  1  0
  9 11  1  0
 11 12  1  0
  5 13  2  0
 13 14  1  0
 14 15  2  0
 15 16  1  0
 16 17  1  0
 17 18  1  0
 18 19  2  0
 19 20  1  0
 20 21  1  0
 20 22  2  0
 22 23  1  0
 22 24  1  0
 24 25  1  0
 25 26  1  0
 26 27  2  0
 27 28  1  0
 28 29  2  0
 29 30  1  0
 30 31  1  0
 31 32  1  0
 31 33  1  0
 33 34  1  0
 33 35  2  0
 33 36  2  0
 27 37  1  0
 37 38  2  0
 15  3  1  0
 23 17  2  0
 30 25  2  0
 12  6  1  0
 38 13  1  0
M  END
>  <Ki>  (1) 
nan

>  <IC50>  (1) 
 120

$$$$
