51024041
     RDKit          2D

 49 53  0  0  0  0  0  0  0  0999 V2000
    3.7500   -1.2990    0.0000 C   0  0  0  0  0  0  0  0  0  0  0  0
    3.0000    0.0000    0.0000 O   0  0  0  0  0  0  0  0  0  0  0  0
    1.5000    0.0000    0.0000 C   0  0  0  0  0  0  0  0  0  0  0  0
    0.7500   -1.2990    0.0000 C   0  0  0  0  0  0  0  0  0  0  0  0
   -0.7500   -1.2990    0.0000 C   0  0  0  0  0  0  0  0  0  0  0  0
   -1.5000    0.0000    0.0000 C   0  0  0  0  0  0  0  0  0  0  0  0
   -3.0000    0.0000    0.0000 N   0  0  0  0  0  0  0  0  0  0  0  0
   -3.7500    1.2990    0.0000 C   0  0  0  0  0  0  0  0  0  0  0  0
   -3.0000    2.5981    0.0000 O   0  0  0  0  0  0  0  0  0  0  0  0
   -5.2500    1.2990    0.0000 C   0  0  0  0  0  0  0  0  0  0  0  0
   -6.6595    1.8121    0.0000 C   0  0  0  0  0  0  0  0  0  0  0  0
   -5.5105    2.7762    0.0000 C   0  0  0  0  0  0  0  0  0  0  0  0
   -5.5105   -0.1782    0.0000 N   0  0  0  0  0  0  0  0  0  0  0  0
   -6.9200   -0.6912    0.0000 C   0  0  0  0  0  0  0  0  0  0  0  0
   -8.0691    0.2730    0.0000 O   0  0  0  0  0  0  0  0  0  0  0  0
   -7.1805   -2.1684    0.0000 C   0  0  0  0  0  0  0  0  0  0  0  0
   -8.5900   -2.6814    0.0000 C   0  0  0  0  0  0  0  0  0  0  0  0
   -8.8505   -4.1587    0.0000 C   0  0  0  0  0  0  0  0  0  0  0  0
  -10.2600   -4.6717    0.0000 C   0  0  0  0  0  0  0  0  0  0  0  0
  -11.4091   -3.7075    0.0000 C   0  0  0  0  0  0  0  0  0  0  0  0
  -10.5205   -6.1489    0.0000 C   0  0  0  0  0  0  0  0  0  0  0  0
   -7.7014   -5.1228    0.0000 C   0  0  0  0  0  0  0  0  0  0  0  0
   -7.9619   -6.6001    0.0000 O   0  0  0  0  0  0  0  0  0  0  0  0
   -6.2919   -4.6098    0.0000 C   0  0  0  0  0  0  0  0  0  0  0  0
   -6.0314   -3.1326    0.0000 C   0  0  0  0  0  0  0  0  0  0  0  0
   -4.6219   -2.6196    0.0000 O   0  0  0  0  0  0  0  0  0  0  0  0
   -0.7500    1.2990    0.0000 C   0  0  0  0  0  0  0  0  0  0  0  0
    0.7500    1.2990    0.0000 C   0  0  0  0  0  0  0  0  0  0  0  0
    1.5000    2.5981    0.0000 N   0  0  0  0  0  0  0  0  0  0  0  0
    3.0000    2.5981    0.0000 C   0  0  0  0  0  0  0  0  0  0  0  0
    3.7500    1.2990    0.0000 N   0  0  0  0  0  0  0  0  0  0  0  0
    5.2500    1.2990    0.0000 C   0  0  0  0  0  0  0  0  0  0  0  0
    6.0000    2.5981    0.0000 C   0  0  0  0  0  0  0  0  0  0  0  0
    7.5000    2.5981    0.0000 Cl  0  0  0  0  0  0  0  0  0  0  0  0
    5.2500    3.8971    0.0000 C   0  0  0  0  0  0  0  0  0  0  0  0
    6.0000    5.1962    0.0000 N   0  0  0  0  0  0  0  0  0  0  0  0
    5.2500    6.4952    0.0000 C   0  0  0  0  0  0  0  0  0  0  0  0
    3.7500    6.4952    0.0000 C   0  0  0  0  0  0  0  0  0  0  0  0
    3.0000    7.7942    0.0000 C   0  0  0  0  0  0  0  0  0  0  0  0
    3.7500    9.0933    0.0000 C   0  0  0  0  0  0  0  0  0  0  0  0
    5.2500    9.0933    0.0000 C   0  0  0  0  0  0  0  0  0  0  0  0
    6.0000    7.7942    0.0000 C   0  0  0  0  0  0  0  0  0  0  0  0
    7.5000    7.7942    0.0000 S   0  0  0  0  0  0  0  0  0  0  0  0
    7.5000    6.2942    0.0000 O   0  0  0  0  0  0  0  0  0  0  0  0
    7.5000    9.2942    0.0000 O   0  0  0  0  0  0  0  0  0  0  0  0
    9.0000    7.7942    0.0000 C   0  0  0  0  0  0  0  0  0  0  0  0
    9.7500    6.4952    0.0000 C   0  0  0  0  0  0  0  0  0  0  0  0
    9.7500    9.0933    0.0000 C   0  0  0  0  0  0  0  0  0  0  0  0
    3.7500    3.8971    0.0000 N   0  0  0  0  0  0  0  0  0  0  0  0
  1  2  1  0
  2  3  1  0
  3  4  2  0
  4  5  1  0
  5  6  2  0
  6  7  1  0
  7  8  1  0
  8  9  2  0
  8 10  1  0
 10 11  1  0
 11 12  1  0
 10 13  1  0
 13 14  1  0
 14 15  2  0
 14 16  1  0
 16 17  2  0
 17 18  1  0
 18 19  1  0
 19 20  1  0
 19 21  1  0
 18 22  2  0
 22 23  1  0
 22 24  1  0
 24 25  2  0
 25 26  1  0
  6 27  1  0
 27 28  2  0
 28 29  1  0
 29 30  1  0
 30 31  2  0
 31 32  1  0
 32 33  2  0
 33 34  1  0
 33 35  1  0
 35 36  1  0
 36 37  1  0
 37 38  2  0
 38 39  1  0
 39 40  2  0
 40 41  1  0
 41 42  2  0
 42 43  1  0
 43 44  2  0
 43 45  2  0
 43 46  1  0
 46 47  1  0
 46 48  1  0
 35 49  2  0
 28  3  1  0
 49 30  1  0
 12 10  1  0
 25 16  1  0
 42 37  1  0
M  END
>  <Ki>  (1) 
nan

>  <IC50>  (1) 
 130

$$$$
