50234954
     RDKit          2D

 37 41  0  0  0  0  0  0  0  0999 V2000
   12.9607   -0.9623    0.0000 C   0  0  0  0  0  0  0  0  0  0  0  0
   13.1175   -2.4541    0.0000 C   0  0  0  0  0  0  0  0  0  0  0  0
   14.4878   -3.0642    0.0000 C   0  0  0  0  0  0  0  0  0  0  0  0
   11.9040   -3.3358    0.0000 S   0  0  0  0  0  0  0  0  0  0  0  0
   11.0223   -2.1223    0.0000 O   0  0  0  0  0  0  0  0  0  0  0  0
   12.7857   -4.5493    0.0000 O   0  0  0  0  0  0  0  0  0  0  0  0
   10.6905   -4.2175    0.0000 C   0  0  0  0  0  0  0  0  0  0  0  0
   10.8472   -5.7093    0.0000 C   0  0  0  0  0  0  0  0  0  0  0  0
    9.6337   -6.5909    0.0000 C   0  0  0  0  0  0  0  0  0  0  0  0
    8.2634   -5.9808    0.0000 C   0  0  0  0  0  0  0  0  0  0  0  0
    8.1066   -4.4891    0.0000 C   0  0  0  0  0  0  0  0  0  0  0  0
    9.3201   -3.6074    0.0000 C   0  0  0  0  0  0  0  0  0  0  0  0
    9.1633   -2.1156    0.0000 N   0  0  0  0  0  0  0  0  0  0  0  0
    7.7930   -1.5055    0.0000 C   0  0  0  0  0  0  0  0  0  0  0  0
    7.6362   -0.0137    0.0000 N   0  0  0  0  0  0  0  0  0  0  0  0
    6.2659    0.5964    0.0000 C   0  0  0  0  0  0  0  0  0  0  0  0
    6.1091    2.0882    0.0000 N   0  0  0  0  0  0  0  0  0  0  0  0
    4.7388    2.6983    0.0000 C   0  0  0  0  0  0  0  0  0  0  0  0
    3.4398    1.9483    0.0000 N   0  0  0  0  0  0  0  0  0  0  0  0
    2.3250    2.9520    0.0000 C   0  0  0  0  0  0  0  0  0  0  0  0
    2.9352    4.3223    0.0000 C   0  0  0  0  0  0  0  0  0  0  0  0
    4.4269    4.1655    0.0000 S   0  0  0  0  0  0  0  0  0  0  0  0
    0.8578    2.6401    0.0000 C   0  0  0  0  0  0  0  0  0  0  0  0
   -0.1459    3.7548    0.0000 O   0  0  0  0  0  0  0  0  0  0  0  0
    0.3943    1.2135    0.0000 N   0  0  0  0  0  0  0  0  0  0  0  0
    1.2760    0.0000    0.0000 C   0  0  0  0  0  0  0  0  0  0  0  0
    0.3943   -1.2135    0.0000 C   0  0  0  0  0  0  0  0  0  0  0  0
    0.3943   -2.7135    0.0000 C   0  0  0  0  0  0  0  0  0  0  0  0
   -1.0323   -3.1771    0.0000 N   0  0  0  0  0  0  0  0  0  0  0  0
   -1.4958   -4.6036    0.0000 C   0  0  0  0  0  0  0  0  0  0  0  0
   -1.9140   -1.9635    0.0000 C   0  0  0  0  0  0  0  0  0  0  0  0
   -1.0323   -0.7500    0.0000 C   0  0  0  0  0  0  0  0  0  0  0  0
   -1.0323    0.7500    0.0000 C   0  0  0  0  0  0  0  0  0  0  0  0
    5.0524   -0.2853    0.0000 N   0  0  0  0  0  0  0  0  0  0  0  0
    5.2092   -1.7771    0.0000 C   0  0  0  0  0  0  0  0  0  0  0  0
    6.5795   -2.3872    0.0000 C   0  0  0  0  0  0  0  0  0  0  0  0
    6.7363   -3.8790    0.0000 Cl  0  0  0  0  0  0  0  0  0  0  0  0
  1  2  1  0
  2  3  1  0
  2  4  1  0
  4  5  2  0
  4  6  2  0
  4  7  1  0
  7  8  2  0
  8  9  1  0
  9 10  2  0
 10 11  1  0
 11 12  2  0
 12 13  1  0
 13 14  1  0
 14 15  2  0
 15 16  1  0
 16 17  1  0
 17 18  1  0
 18 19  2  0
 19 20  1  0
 20 21  2  0
 21 22  1  0
 20 23  1  0
 23 24  2  0
 23 25  1  0
 25 26  1  0
 27 26  1  6
 27 28  1  0
 28 29  1  0
 29 30  1  0
 29 31  1  0
 32 31  1  6
 32 33  1  0
 16 34  2  0
 34 35  1  0
 35 36  2  0
 36 37  1  0
 12  7  1  0
 36 14  1  0
 22 18  1  0
 33 25  1  0
 32 27  1  0
M  END
>  <Ki>  (1) 
nan

>  <IC50>  (1) 
 134

$$$$
