50234956
     RDKit          2D

 36 40  0  0  0  0  0  0  0  0999 V2000
    3.7631   12.7641    0.0000 C   0  0  0  0  0  0  0  0  0  0  0  0
    5.2303   12.4522    0.0000 C   0  0  0  0  0  0  0  0  0  0  0  0
    6.2340   13.5669    0.0000 C   0  0  0  0  0  0  0  0  0  0  0  0
    5.6938   11.0256    0.0000 S   0  0  0  0  0  0  0  0  0  0  0  0
    4.2672   10.5621    0.0000 O   0  0  0  0  0  0  0  0  0  0  0  0
    7.1204   11.4892    0.0000 O   0  0  0  0  0  0  0  0  0  0  0  0
    6.1573    9.5990    0.0000 C   0  0  0  0  0  0  0  0  0  0  0  0
    7.6246    9.2872    0.0000 C   0  0  0  0  0  0  0  0  0  0  0  0
    8.0881    7.8606    0.0000 C   0  0  0  0  0  0  0  0  0  0  0  0
    7.0844    6.7459    0.0000 C   0  0  0  0  0  0  0  0  0  0  0  0
    5.6172    7.0577    0.0000 C   0  0  0  0  0  0  0  0  0  0  0  0
    5.1536    8.4843    0.0000 C   0  0  0  0  0  0  0  0  0  0  0  0
    3.6864    8.7962    0.0000 N   0  0  0  0  0  0  0  0  0  0  0  0
    2.6827    7.6815    0.0000 C   0  0  0  0  0  0  0  0  0  0  0  0
    1.2155    7.9933    0.0000 N   0  0  0  0  0  0  0  0  0  0  0  0
    0.2118    6.8786    0.0000 C   0  0  0  0  0  0  0  0  0  0  0  0
   -1.2554    7.1905    0.0000 N   0  0  0  0  0  0  0  0  0  0  0  0
   -2.2591    6.0758    0.0000 C   0  0  0  0  0  0  0  0  0  0  0  0
   -1.9472    4.6086    0.0000 N   0  0  0  0  0  0  0  0  0  0  0  0
   -3.2463    3.8586    0.0000 C   0  0  0  0  0  0  0  0  0  0  0  0
   -4.3610    4.8623    0.0000 C   0  0  0  0  0  0  0  0  0  0  0  0
   -3.7509    6.2326    0.0000 S   0  0  0  0  0  0  0  0  0  0  0  0
   -3.4031    2.3668    0.0000 C   0  0  0  0  0  0  0  0  0  0  0  0
   -4.7734    1.7567    0.0000 O   0  0  0  0  0  0  0  0  0  0  0  0
   -2.1895    1.4851    0.0000 N   0  0  0  0  0  0  0  0  0  0  0  0
   -0.8192    2.0952    0.0000 C   0  0  0  0  0  0  0  0  0  0  0  0
    0.3943    1.2135    0.0000 C   0  0  0  0  0  0  0  0  0  0  0  0
    1.2760    0.0000    0.0000 C   0  0  0  0  0  0  0  0  0  0  0  0
    0.3943   -1.2135    0.0000 C   0  0  0  0  0  0  0  0  0  0  0  0
   -1.0323   -0.7500    0.0000 C   0  0  0  0  0  0  0  0  0  0  0  0
   -2.3463   -0.0067    0.0000 C   0  0  0  0  0  0  0  0  0  0  0  0
   -1.0323    0.7500    0.0000 O   0  0  0  0  0  0  0  0  0  0  0  0
    0.6753    5.4520    0.0000 N   0  0  0  0  0  0  0  0  0  0  0  0
    2.1426    5.1402    0.0000 C   0  0  0  0  0  0  0  0  0  0  0  0
    3.1463    6.2549    0.0000 C   0  0  0  0  0  0  0  0  0  0  0  0
    4.6135    5.9430    0.0000 Cl  0  0  0  0  0  0  0  0  0  0  0  0
  1  2  1  0
  2  3  1  0
  2  4  1  0
  4  5  2  0
  4  6  2  0
  4  7  1  0
  7  8  2  0
  8  9  1  0
  9 10  2  0
 10 11  1  0
 11 12  2  0
 12 13  1  0
 13 14  1  0
 14 15  2  0
 15 16  1  0
 16 17  1  0
 17 18  1  0
 18 19  2  0
 19 20  1  0
 20 21  2  0
 21 22  1  0
 20 23  1  0
 23 24  2  0
 23 25  1  0
 25 26  1  0
 26 27  1  0
 27 28  1  0
 28 29  1  0
 29 30  1  0
 30 31  1  0
 30 32  1  0
 16 33  2  0
 33 34  1  0
 34 35  2  0
 35 36  1  0
 12  7  1  0
 35 14  1  0
 22 18  1  0
 31 25  1  0
 32 27  1  0
M  END
>  <Ki>  (1) 
nan

>  <IC50>  (1) 
 144

$$$$
