325635
     RDKit          2D

 31 34  0  0  0  0  0  0  0  0999 V2000
    7.5000   -4.0981    0.0000 C   0  0  0  0  0  0  0  0  0  0  0  0
    7.5000   -2.5981    0.0000 C   0  0  0  0  0  0  0  0  0  0  0  0
    7.5000   -1.0981    0.0000 C   0  0  0  0  0  0  0  0  0  0  0  0
    9.0000   -2.5981    0.0000 C   0  0  0  0  0  0  0  0  0  0  0  0
    9.7500   -1.2990    0.0000 O   0  0  0  0  0  0  0  0  0  0  0  0
    6.0000   -2.5981    0.0000 N   0  0  0  0  0  0  0  0  0  0  0  0
    5.2500   -1.2990    0.0000 C   0  0  0  0  0  0  0  0  0  0  0  0
    3.7500   -1.2990    0.0000 C   0  0  0  0  0  0  0  0  0  0  0  0
    3.0000    0.0000    0.0000 O   0  0  0  0  0  0  0  0  0  0  0  0
    1.5000    0.0000    0.0000 C   0  0  0  0  0  0  0  0  0  0  0  0
    0.7500   -1.2990    0.0000 C   0  0  0  0  0  0  0  0  0  0  0  0
   -0.7500   -1.2990    0.0000 C   0  0  0  0  0  0  0  0  0  0  0  0
   -1.5000    0.0000    0.0000 C   0  0  0  0  0  0  0  0  0  0  0  0
   -3.0000    0.0000    0.0000 C   0  0  0  0  0  0  0  0  0  0  0  0
   -3.7500   -1.2990    0.0000 O   0  0  0  0  0  0  0  0  0  0  0  0
   -3.7500    1.2990    0.0000 C   0  0  0  0  0  0  0  0  0  0  0  0
   -3.0000    2.5981    0.0000 C   0  0  0  0  0  0  0  0  0  0  0  0
   -4.0037    3.7128    0.0000 N   0  0  0  0  0  0  0  0  0  0  0  0
   -5.3740    3.1027    0.0000 C   0  0  0  0  0  0  0  0  0  0  0  0
   -6.7443    3.7128    0.0000 C   0  0  0  0  0  0  0  0  0  0  0  0
   -7.9579    2.8311    0.0000 C   0  0  0  0  0  0  0  0  0  0  0  0
   -7.8011    1.3393    0.0000 C   0  0  0  0  0  0  0  0  0  0  0  0
   -6.4307    0.7292    0.0000 C   0  0  0  0  0  0  0  0  0  0  0  0
   -5.2172    1.6109    0.0000 C   0  0  0  0  0  0  0  0  0  0  0  0
   -9.3282    3.4412    0.0000 C   0  0  0  0  0  0  0  0  0  0  0  0
  -10.6985    4.0513    0.0000 N   0  0  0  0  0  0  0  0  0  0  0  0
   -1.5000    2.5981    0.0000 C   0  0  0  0  0  0  0  0  0  0  0  0
   -0.0905    3.1111    0.0000 C   0  0  0  0  0  0  0  0  0  0  0  0
   -1.7605    4.0753    0.0000 C   0  0  0  0  0  0  0  0  0  0  0  0
   -0.7500    1.2990    0.0000 C   0  0  0  0  0  0  0  0  0  0  0  0
    0.7500    1.2990    0.0000 C   0  0  0  0  0  0  0  0  0  0  0  0
  1  2  1  0
  2  3  1  0
  2  4  1  0
  4  5  1  0
  2  6  1  0
  6  7  1  0
  7  8  1  0
  8  9  1  0
  9 10  1  0
 10 11  2  0
 11 12  1  0
 12 13  2  0
 13 14  1  0
 14 15  2  0
 14 16  1  0
 16 17  2  0
 17 18  1  0
 18 19  1  0
 19 20  2  0
 20 21  1  0
 21 22  2  0
 22 23  1  0
 23 24  2  0
 21 25  1  0
 25 26  3  0
 17 27  1  0
 27 28  1  0
 27 29  1  0
 27 30  1  0
 30 31  2  0
 31 10  1  0
 30 13  1  0
 24 16  1  0
 24 19  1  0
M  END
>  <Ki>  (1) 
nan

>  <IC50>  (1) 
 3.595

$$$$
