50487972
     RDKit          2D

 46 50  0  0  0  0  0  0  0  0999 V2000
    3.8093   -1.1658    0.0000 C   0  0  0  0  0  0  0  0  0  0  0  0
    2.3421   -1.4776    0.0000 O   0  0  0  0  0  0  0  0  0  0  0  0
    1.3384   -0.3629    0.0000 C   0  0  0  0  0  0  0  0  0  0  0  0
    1.8019    1.0637    0.0000 C   0  0  0  0  0  0  0  0  0  0  0  0
    0.7982    2.1784    0.0000 C   0  0  0  0  0  0  0  0  0  0  0  0
   -0.6690    1.8665    0.0000 C   0  0  0  0  0  0  0  0  0  0  0  0
   -1.6727    2.9812    0.0000 C   0  0  0  0  0  0  0  0  0  0  0  0
   -3.1399    2.6694    0.0000 N   0  0  0  0  0  0  0  0  0  0  0  0
   -4.2546    3.6731    0.0000 C   0  0  0  0  0  0  0  0  0  0  0  0
   -5.5537    2.9231    0.0000 C   0  0  0  0  0  0  0  0  0  0  0  0
   -6.9240    3.5332    0.0000 N   0  0  0  0  0  0  0  0  0  0  0  0
   -7.0808    5.0249    0.0000 C   0  0  0  0  0  0  0  0  0  0  0  0
   -5.8672    5.9066    0.0000 N   0  0  0  0  0  0  0  0  0  0  0  0
   -6.0240    7.3984    0.0000 C   0  0  0  0  0  0  0  0  0  0  0  0
   -4.8105    8.2801    0.0000 N   0  0  0  0  0  0  0  0  0  0  0  0
   -4.9673    9.7719    0.0000 C   0  0  0  0  0  0  0  0  0  0  0  0
   -3.7538   10.6535    0.0000 C   0  0  0  0  0  0  0  0  0  0  0  0
   -3.9106   12.1453    0.0000 C   0  0  0  0  0  0  0  0  0  0  0  0
   -2.6970   13.0270    0.0000 C   0  0  0  0  0  0  0  0  0  0  0  0
   -5.2809   12.7554    0.0000 C   0  0  0  0  0  0  0  0  0  0  0  0
   -6.4944   11.8737    0.0000 C   0  0  0  0  0  0  0  0  0  0  0  0
   -6.3376   10.3820    0.0000 C   0  0  0  0  0  0  0  0  0  0  0  0
   -7.5511    9.5003    0.0000 O   0  0  0  0  0  0  0  0  0  0  0  0
   -8.9215   10.1104    0.0000 C   0  0  0  0  0  0  0  0  0  0  0  0
  -10.1350    9.2287    0.0000 C   0  0  0  0  0  0  0  0  0  0  0  0
   -9.0783   11.6022    0.0000 C   0  0  0  0  0  0  0  0  0  0  0  0
   -5.4377   14.2472    0.0000 C   0  0  0  0  0  0  0  0  0  0  0  0
   -4.2241   15.1289    0.0000 C   0  0  0  0  0  0  0  0  0  0  0  0
   -4.3809   16.6207    0.0000 C   0  0  0  0  0  0  0  0  0  0  0  0
   -5.7513   17.2308    0.0000 N   0  0  0  0  0  0  0  0  0  0  0  0
   -6.9648   16.3491    0.0000 C   0  0  0  0  0  0  0  0  0  0  0  0
   -6.8080   14.8573    0.0000 C   0  0  0  0  0  0  0  0  0  0  0  0
   -7.3943    8.0085    0.0000 N   0  0  0  0  0  0  0  0  0  0  0  0
   -8.6079    7.1268    0.0000 C   0  0  0  0  0  0  0  0  0  0  0  0
   -8.4511    5.6350    0.0000 C   0  0  0  0  0  0  0  0  0  0  0  0
   -9.6646    4.7534    0.0000 Cl  0  0  0  0  0  0  0  0  0  0  0  0
   -5.2418    1.4558    0.0000 C   0  0  0  0  0  0  0  0  0  0  0  0
   -3.7500    1.2990    0.0000 N   0  0  0  0  0  0  0  0  0  0  0  0
   -6.2455    0.3411    0.0000 S   0  0  0  0  0  0  0  0  0  0  0  0
   -7.3602    1.3448    0.0000 O   0  0  0  0  0  0  0  0  0  0  0  0
   -5.1308   -0.6626    0.0000 O   0  0  0  0  0  0  0  0  0  0  0  0
   -7.2492   -0.7736    0.0000 C   0  0  0  0  0  0  0  0  0  0  0  0
   -6.7856   -2.2002    0.0000 C   0  0  0  0  0  0  0  0  0  0  0  0
   -8.7164   -0.4617    0.0000 C   0  0  0  0  0  0  0  0  0  0  0  0
   -1.1325    0.4399    0.0000 C   0  0  0  0  0  0  0  0  0  0  0  0
   -0.1288   -0.6748    0.0000 C   0  0  0  0  0  0  0  0  0  0  0  0
  1  2  1  0
  2  3  1  0
  3  4  2  0
  4  5  1  0
  5  6  2  0
  6  7  1  0
  7  8  1  0
  8  9  1  0
  9 10  2  0
 10 11  1  0
 11 12  1  0
 12 13  2  0
 13 14  1  0
 14 15  1  0
 15 16  1  0
 16 17  2  0
 17 18  1  0
 18 19  1  0
 18 20  2  0
 20 21  1  0
 21 22  2  0
 22 23  1  0
 23 24  1  0
 24 25  1  0
 24 26  1  0
 20 27  1  0
 27 28  1  0
 28 29  1  0
 29 30  1  0
 30 31  1  0
 31 32  1  0
 14 33  2  0
 33 34  1  0
 34 35  2  0
 35 36  1  0
 10 37  1  0
 37 38  2  0
 37 39  1  0
 39 40  2  0
 39 41  2  0
 39 42  1  0
 42 43  1  0
 42 44  1  0
  6 45  1  0
 45 46  2  0
 46  3  1  0
 38  8  1  0
 35 12  1  0
 22 16  1  0
 32 27  1  0
M  END
>  <Ki>  (1) 
nan

>  <IC50>  (1) 
 157

$$$$
