50234975
     RDKit          2D

 36 39  0  0  0  0  0  0  0  0999 V2000
    6.2286   -2.5981    0.0000 C   0  0  0  0  0  0  0  0  0  0  0  0
    5.4786   -1.2990    0.0000 C   0  0  0  0  0  0  0  0  0  0  0  0
    3.9786   -1.2990    0.0000 O   0  0  0  0  0  0  0  0  0  0  0  0
    3.2286   -0.0000    0.0000 C   0  0  0  0  0  0  0  0  0  0  0  0
    3.9786    1.2990    0.0000 O   0  0  0  0  0  0  0  0  0  0  0  0
    1.7286    0.0000    0.0000 N   0  0  0  0  0  0  0  0  0  0  0  0
    1.0777    1.3515    0.0000 C   0  0  0  0  0  0  0  0  0  0  0  0
   -0.3846    1.6852    0.0000 C   0  0  0  0  0  0  0  0  0  0  0  0
   -1.5574    0.7500    0.0000 C   0  0  0  0  0  0  0  0  0  0  0  0
   -2.9840    1.2135    0.0000 N   0  0  0  0  0  0  0  0  0  0  0  0
   -3.8657    0.0000    0.0000 C   0  0  0  0  0  0  0  0  0  0  0  0
   -5.3657    0.0000    0.0000 N   0  0  0  0  0  0  0  0  0  0  0  0
   -6.1157    1.2990    0.0000 C   0  0  0  0  0  0  0  0  0  0  0  0
   -5.3657    2.5981    0.0000 N   0  0  0  0  0  0  0  0  0  0  0  0
   -6.1157    3.8971    0.0000 C   0  0  0  0  0  0  0  0  0  0  0  0
   -7.6157    3.8971    0.0000 C   0  0  0  0  0  0  0  0  0  0  0  0
   -8.3657    5.1962    0.0000 Cl  0  0  0  0  0  0  0  0  0  0  0  0
   -8.3657    2.5981    0.0000 C   0  0  0  0  0  0  0  0  0  0  0  0
   -9.8657    2.5981    0.0000 N   0  0  0  0  0  0  0  0  0  0  0  0
  -10.6157    1.2990    0.0000 C   0  0  0  0  0  0  0  0  0  0  0  0
   -9.8657    0.0000    0.0000 C   0  0  0  0  0  0  0  0  0  0  0  0
  -10.6157   -1.2990    0.0000 C   0  0  0  0  0  0  0  0  0  0  0  0
  -12.1157   -1.2990    0.0000 C   0  0  0  0  0  0  0  0  0  0  0  0
  -12.8657   -0.0000    0.0000 C   0  0  0  0  0  0  0  0  0  0  0  0
  -12.1157    1.2990    0.0000 C   0  0  0  0  0  0  0  0  0  0  0  0
  -12.8657    2.5981    0.0000 S   0  0  0  0  0  0  0  0  0  0  0  0
  -11.5666    3.3481    0.0000 O   0  0  0  0  0  0  0  0  0  0  0  0
  -14.1647    1.8481    0.0000 O   0  0  0  0  0  0  0  0  0  0  0  0
  -13.6157    3.8971    0.0000 C   0  0  0  0  0  0  0  0  0  0  0  0
  -15.1157    3.8971    0.0000 C   0  0  0  0  0  0  0  0  0  0  0  0
  -12.8657    5.1962    0.0000 C   0  0  0  0  0  0  0  0  0  0  0  0
   -7.6157    1.2990    0.0000 N   0  0  0  0  0  0  0  0  0  0  0  0
   -2.9840   -1.2135    0.0000 S   0  0  0  0  0  0  0  0  0  0  0  0
   -1.5574   -0.7500    0.0000 C   0  0  0  0  0  0  0  0  0  0  0  0
   -0.3846   -1.6852    0.0000 C   0  0  0  0  0  0  0  0  0  0  0  0
    1.0777   -1.3515    0.0000 C   0  0  0  0  0  0  0  0  0  0  0  0
  1  2  1  0
  2  3  1  0
  3  4  1  0
  4  5  2  0
  4  6  1  0
  6  7  1  0
  7  8  1  0
  8  9  1  0
  9 10  1  0
 10 11  2  0
 11 12  1  0
 12 13  1  0
 13 14  2  0
 14 15  1  0
 15 16  2  0
 16 17  1  0
 16 18  1  0
 18 19  1  0
 19 20  1  0
 20 21  2  0
 21 22  1  0
 22 23  2  0
 23 24  1  0
 24 25  2  0
 25 26  1  0
 26 27  2  0
 26 28  2  0
 26 29  1  0
 29 30  1  0
 29 31  1  0
 18 32  2  0
 11 33  1  0
 33 34  1  0
 34 35  1  0
 35 36  1  0
 36  6  1  0
 34  9  2  0
 32 13  1  0
 25 20  1  0
M  END
>  <Ki>  (1) 
nan

>  <IC50>  (1) 
 178

$$$$
