50234953
     RDKit          2D

 38 42  0  0  0  0  0  0  0  0999 V2000
   11.4963   11.6322    0.0000 C   0  0  0  0  0  0  0  0  0  0  0  0
   12.8666   11.0221    0.0000 C   0  0  0  0  0  0  0  0  0  0  0  0
   14.0802   11.9037    0.0000 C   0  0  0  0  0  0  0  0  0  0  0  0
   13.0234    9.5303    0.0000 S   0  0  0  0  0  0  0  0  0  0  0  0
   11.5316    9.3735    0.0000 O   0  0  0  0  0  0  0  0  0  0  0  0
   14.5152    9.6871    0.0000 O   0  0  0  0  0  0  0  0  0  0  0  0
   13.1802    8.0385    0.0000 C   0  0  0  0  0  0  0  0  0  0  0  0
   14.5505    7.4284    0.0000 C   0  0  0  0  0  0  0  0  0  0  0  0
   14.7073    5.9366    0.0000 C   0  0  0  0  0  0  0  0  0  0  0  0
   13.4938    5.0549    0.0000 C   0  0  0  0  0  0  0  0  0  0  0  0
   12.1235    5.6650    0.0000 C   0  0  0  0  0  0  0  0  0  0  0  0
   11.9667    7.1568    0.0000 C   0  0  0  0  0  0  0  0  0  0  0  0
   10.5964    7.7669    0.0000 N   0  0  0  0  0  0  0  0  0  0  0  0
    9.3828    6.8852    0.0000 C   0  0  0  0  0  0  0  0  0  0  0  0
    8.0125    7.4953    0.0000 N   0  0  0  0  0  0  0  0  0  0  0  0
    6.7990    6.6137    0.0000 C   0  0  0  0  0  0  0  0  0  0  0  0
    5.4287    7.2238    0.0000 N   0  0  0  0  0  0  0  0  0  0  0  0
    4.2152    6.3421    0.0000 C   0  0  0  0  0  0  0  0  0  0  0  0
    4.2152    4.8421    0.0000 N   0  0  0  0  0  0  0  0  0  0  0  0
    2.7886    4.3786    0.0000 C   0  0  0  0  0  0  0  0  0  0  0  0
    2.3250    2.9520    0.0000 C   0  0  0  0  0  0  0  0  0  0  0  0
    0.8578    2.6401    0.0000 C   0  0  0  0  0  0  0  0  0  0  0  0
   -0.1459    3.7548    0.0000 O   0  0  0  0  0  0  0  0  0  0  0  0
    0.3943    1.2135    0.0000 N   0  0  0  0  0  0  0  0  0  0  0  0
    1.2760    0.0000    0.0000 C   0  0  0  0  0  0  0  0  0  0  0  0
    0.3943   -1.2135    0.0000 C   0  0  0  0  0  0  0  0  0  0  0  0
    0.3943   -2.7135    0.0000 C   0  0  0  0  0  0  0  0  0  0  0  0
   -1.0323   -3.1771    0.0000 N   0  0  0  0  0  0  0  0  0  0  0  0
   -1.4958   -4.6036    0.0000 C   0  0  0  0  0  0  0  0  0  0  0  0
   -1.9140   -1.9635    0.0000 C   0  0  0  0  0  0  0  0  0  0  0  0
   -1.0323   -0.7500    0.0000 C   0  0  0  0  0  0  0  0  0  0  0  0
   -1.0323    0.7500    0.0000 C   0  0  0  0  0  0  0  0  0  0  0  0
    1.9069    5.5921    0.0000 C   0  0  0  0  0  0  0  0  0  0  0  0
    2.7886    6.8056    0.0000 S   0  0  0  0  0  0  0  0  0  0  0  0
    6.9558    5.1219    0.0000 N   0  0  0  0  0  0  0  0  0  0  0  0
    8.3261    4.5118    0.0000 C   0  0  0  0  0  0  0  0  0  0  0  0
    9.5396    5.3935    0.0000 C   0  0  0  0  0  0  0  0  0  0  0  0
   10.9100    4.7833    0.0000 Cl  0  0  0  0  0  0  0  0  0  0  0  0
  1  2  1  0
  2  3  1  0
  2  4  1  0
  4  5  2  0
  4  6  2  0
  4  7  1  0
  7  8  2  0
  8  9  1  0
  9 10  2  0
 10 11  1  0
 11 12  2  0
 12 13  1  0
 13 14  1  0
 14 15  2  0
 15 16  1  0
 16 17  1  0
 17 18  1  0
 18 19  2  0
 19 20  1  0
 20 21  1  0
 21 22  1  0
 22 23  2  0
 22 24  1  0
 24 25  1  0
 26 25  1  6
 26 27  1  0
 27 28  1  0
 28 29  1  0
 28 30  1  0
 31 30  1  6
 31 32  1  0
 20 33  2  0
 33 34  1  0
 16 35  2  0
 35 36  1  0
 36 37  2  0
 37 38  1  0
 12  7  1  0
 37 14  1  0
 34 18  1  0
 32 24  1  0
 31 26  1  0
M  END
>  <Ki>  (1) 
nan

>  <IC50>  (1) 
 243

$$$$
