50715472
     RDKit          2D

 32 36  0  0  0  0  0  0  0  0999 V2000
    3.7500   -1.2990    0.0000 C   0  0  0  0  0  0  0  0  0  0  0  0
    3.0000    0.0000    0.0000 O   0  0  0  0  0  0  0  0  0  0  0  0
    1.5000    0.0000    0.0000 C   0  0  0  0  0  0  0  0  0  0  0  0
    0.7500   -1.2990    0.0000 C   0  0  0  0  0  0  0  0  0  0  0  0
   -0.7500   -1.2990    0.0000 C   0  0  0  0  0  0  0  0  0  0  0  0
   -1.5000    0.0000    0.0000 C   0  0  0  0  0  0  0  0  0  0  0  0
   -0.7500    1.2990    0.0000 C   0  0  0  0  0  0  0  0  0  0  0  0
    0.7500    1.2990    0.0000 C   0  0  0  0  0  0  0  0  0  0  0  0
    1.2250    2.7218    0.0000 N   0  0  0  0  0  0  0  0  0  0  0  0
    0.9844    4.2024    0.0000 C   0  0  0  0  0  0  0  0  0  0  0  0
    0.0833    5.4016    0.0000 N   0  0  0  0  0  0  0  0  0  0  0  0
   -1.2719    6.0446    0.0000 C   0  0  0  0  0  0  0  0  0  0  0  0
   -0.0794    7.0075    0.0000 N   0  0  0  0  0  0  0  0  0  0  0  0
    1.4011    6.7668    0.0000 C   0  0  0  0  0  0  0  0  0  0  0  0
    1.9331    5.3643    0.0000 C   0  0  0  0  0  0  0  0  0  0  0  0
    3.4136    5.1237    0.0000 Cl  0  0  0  0  0  0  0  0  0  0  0  0
   -2.7707    5.9842    0.0000 N   0  0  0  0  0  0  0  0  0  0  0  0
   -4.0697    5.2342    0.0000 C   0  0  0  0  0  0  0  0  0  0  0  0
   -5.5922    5.4107    0.0000 C   0  0  0  0  0  0  0  0  0  0  0  0
   -6.7150    4.4160    0.0000 C   0  0  0  0  0  0  0  0  0  0  0  0
   -6.4149    2.9463    0.0000 C   0  0  0  0  0  0  0  0  0  0  0  0
   -7.5377    1.9516    0.0000 N   0  0  0  0  0  0  0  0  0  0  0  0
   -8.9605    2.4266    0.0000 C   0  0  0  0  0  0  0  0  0  0  0  0
  -10.0833    1.4319    0.0000 C   0  0  0  0  0  0  0  0  0  0  0  0
   -9.7832   -0.0377    0.0000 N   0  0  0  0  0  0  0  0  0  0  0  0
  -10.9060   -1.0324    0.0000 C   0  0  0  0  0  0  0  0  0  0  0  0
   -8.3604   -0.5128    0.0000 C   0  0  0  0  0  0  0  0  0  0  0  0
   -7.2377    0.4819    0.0000 C   0  0  0  0  0  0  0  0  0  0  0  0
   -4.9921    2.4713    0.0000 C   0  0  0  0  0  0  0  0  0  0  0  0
   -4.8714    3.9664    0.0000 C   0  0  0  0  0  0  0  0  0  0  0  0
   -4.4042    1.0913    0.0000 C   0  0  0  0  0  0  0  0  0  0  0  0
   -3.2423    0.1427    0.0000 C   0  0  0  0  0  0  0  0  0  0  0  0
  1  2  1  0
  2  3  1  0
  3  4  2  0
  4  5  1  0
  5  6  2  0
  6  7  1  0
  7  8  2  0
  8  9  1  0
  9 10  1  0
 10 11  1  0
 11 12  2  0
 12 13  1  0
 13 14  2  0
 14 15  1  0
 15 16  1  0
 12 17  1  0
 17 18  1  0
 18 19  1  0
 19 20  2  0
 20 21  1  0
 21 22  1  0
 22 23  1  0
 23 24  1  0
 24 25  1  0
 25 26  1  0
 25 27  1  0
 27 28  1  0
 21 29  2  0
 29 30  1  0
 29 31  1  0
 31 32  2  0
  8  3  1  0
 15 10  2  0
 30 18  2  0
 32  6  1  0
 28 22  1  0
M  END
>  <Ki>  (1) 
nan

>  <IC50>  (1) 
 259

$$$$
