50705801
     RDKit          2D

 29 32  0  0  0  0  0  0  0  0999 V2000
    7.5000   -2.5981    0.0000 C   0  0  0  0  0  0  0  0  0  0  0  0
    6.0000   -2.5981    0.0000 N   0  0  0  0  0  0  0  0  0  0  0  0
    5.2500   -3.8971    0.0000 C   0  0  0  0  0  0  0  0  0  0  0  0
    5.2500   -1.2990    0.0000 C   0  0  0  0  0  0  0  0  0  0  0  0
    3.7500   -1.2990    0.0000 C   0  0  0  0  0  0  0  0  0  0  0  0
    3.0000    0.0000    0.0000 O   0  0  0  0  0  0  0  0  0  0  0  0
    1.5000    0.0000    0.0000 C   0  0  0  0  0  0  0  0  0  0  0  0
    0.7500   -1.2990    0.0000 C   0  0  0  0  0  0  0  0  0  0  0  0
   -0.7500   -1.2990    0.0000 C   0  0  0  0  0  0  0  0  0  0  0  0
   -1.5000    0.0000    0.0000 C   0  0  0  0  0  0  0  0  0  0  0  0
   -0.7500    1.2990    0.0000 C   0  0  0  0  0  0  0  0  0  0  0  0
   -1.2135    2.7256    0.0000 N   0  0  0  0  0  0  0  0  0  0  0  0
   -2.6401    3.1891    0.0000 C   0  0  0  0  0  0  0  0  0  0  0  0
   -0.0000    3.6073    0.0000 C   0  0  0  0  0  0  0  0  0  0  0  0
    1.2135    2.7256    0.0000 C   0  0  0  0  0  0  0  0  0  0  0  0
    2.6401    3.1891    0.0000 C   0  0  0  0  0  0  0  0  0  0  0  0
    2.9520    4.6564    0.0000 C   0  0  0  0  0  0  0  0  0  0  0  0
    1.9483    5.7711    0.0000 C   0  0  0  0  0  0  0  0  0  0  0  0
    0.4565    5.6143    0.0000 O   0  0  0  0  0  0  0  0  0  0  0  0
    2.6983    7.0701    0.0000 N   0  0  0  0  0  0  0  0  0  0  0  0
    4.1655    6.7583    0.0000 N   0  0  0  0  0  0  0  0  0  0  0  0
    4.3223    5.2665    0.0000 C   0  0  0  0  0  0  0  0  0  0  0  0
    5.6213    4.5165    0.0000 C   0  0  0  0  0  0  0  0  0  0  0  0
    6.9917    5.1266    0.0000 S   0  0  0  0  0  0  0  0  0  0  0  0
    7.9953    4.0119    0.0000 N   0  0  0  0  0  0  0  0  0  0  0  0
    7.2453    2.7128    0.0000 N   0  0  0  0  0  0  0  0  0  0  0  0
    5.7781    3.0247    0.0000 C   0  0  0  0  0  0  0  0  0  0  0  0
    4.6634    2.0210    0.0000 C   0  0  0  0  0  0  0  0  0  0  0  0
    0.7500    1.2990    0.0000 C   0  0  0  0  0  0  0  0  0  0  0  0
  1  2  1  0
  2  3  1  0
  2  4  1  0
  4  5  1  0
  5  6  1  0
  6  7  1  0
  7  8  2  0
  8  9  1  0
  9 10  2  0
 10 11  1  0
 11 12  1  0
 12 13  1  0
 12 14  1  0
 14 15  2  0
 15 16  1  0
 16 17  2  3
 17 18  1  0
 18 19  2  0
 18 20  1  0
 20 21  1  0
 21 22  1  0
 22 23  2  0
 23 24  1  0
 24 25  1  0
 25 26  2  0
 26 27  1  0
 27 28  2  0
 15 29  1  0
 29  7  1  0
 29 11  2  0
 22 17  1  0
 27 23  1  0
M  END
>  <Ki>  (1) 
nan

>  <IC50>  (1) 
 291

$$$$
