321211
     RDKit          2D

 38 42  0  0  0  0  0  0  0  0999 V2000
    3.9847    8.5875    0.0000 C   0  0  0  0  0  0  0  0  0  0  0  0
    5.2724    7.8181    0.0000 O   0  0  0  0  0  0  0  0  0  0  0  0
    6.5825    8.5486    0.0000 C   0  0  0  0  0  0  0  0  0  0  0  0
    6.6050   10.0484    0.0000 C   0  0  0  0  0  0  0  0  0  0  0  0
    7.9151   10.7789    0.0000 C   0  0  0  0  0  0  0  0  0  0  0  0
    9.2027   10.0096    0.0000 C   0  0  0  0  0  0  0  0  0  0  0  0
    9.1803    8.5097    0.0000 C   0  0  0  0  0  0  0  0  0  0  0  0
    7.8702    7.7792    0.0000 C   0  0  0  0  0  0  0  0  0  0  0  0
    7.8478    6.2794    0.0000 C   0  0  0  0  0  0  0  0  0  0  0  0
    9.0480    5.3797    0.0000 C   0  0  0  0  0  0  0  0  0  0  0  0
    8.5631    3.9602    0.0000 S   0  0  0  0  0  0  0  0  0  0  0  0
    7.0633    3.9826    0.0000 C   0  0  0  0  0  0  0  0  0  0  0  0
    6.0430    2.8830    0.0000 C   0  0  0  0  0  0  0  0  0  0  0  0
    4.5807    3.2168    0.0000 N   0  0  0  0  0  0  0  0  0  0  0  0
    4.1385    4.6502    0.0000 C   0  0  0  0  0  0  0  0  0  0  0  0
    2.6761    4.9840    0.0000 N   0  0  0  0  0  0  0  0  0  0  0  0
    1.6559    3.8844    0.0000 C   0  0  0  0  0  0  0  0  0  0  0  0
    2.0980    2.4510    0.0000 C   0  0  0  0  0  0  0  0  0  0  0  0
    1.0777    1.3515    0.0000 C   0  0  0  0  0  0  0  0  0  0  0  0
    1.7286    0.0000    0.0000 C   0  0  0  0  0  0  0  0  0  0  0  0
    1.0777   -1.3515    0.0000 C   0  0  0  0  0  0  0  0  0  0  0  0
   -0.3846   -1.6852    0.0000 C   0  0  0  0  0  0  0  0  0  0  0  0
   -1.5574   -0.7500    0.0000 C   0  0  0  0  0  0  0  0  0  0  0  0
   -2.9088   -1.4008    0.0000 O   0  0  0  0  0  0  0  0  0  0  0  0
   -1.5574    0.7500    0.0000 N   0  0  0  0  0  0  0  0  0  0  0  0
   -2.9088    1.4008    0.0000 C   0  0  0  0  0  0  0  0  0  0  0  0
   -0.3846    1.6852    0.0000 C   0  0  0  0  0  0  0  0  0  0  0  0
   -0.8268    3.1186    0.0000 C   0  0  0  0  0  0  0  0  0  0  0  0
    0.1935    4.2182    0.0000 C   0  0  0  0  0  0  0  0  0  0  0  0
   -0.2487    5.6515    0.0000 O   0  0  0  0  0  0  0  0  0  0  0  0
   -1.7110    5.9853    0.0000 C   0  0  0  0  0  0  0  0  0  0  0  0
   -2.1532    7.4187    0.0000 C   0  0  0  0  0  0  0  0  0  0  0  0
   -2.7313    4.8857    0.0000 C   0  0  0  0  0  0  0  0  0  0  0  0
    5.1588    5.7498    0.0000 N   0  0  0  0  0  0  0  0  0  0  0  0
    6.6212    5.4160    0.0000 C   0  0  0  0  0  0  0  0  0  0  0  0
   10.4813    5.8218    0.0000 C   0  0  0  0  0  0  0  0  0  0  0  0
   11.5809    4.8015    0.0000 N   0  0  0  0  0  0  0  0  0  0  0  0
   10.8151    7.2842    0.0000 O   0  0  0  0  0  0  0  0  0  0  0  0
  1  2  1  0
  2  3  1  0
  3  4  2  0
  4  5  1  0
  5  6  2  0
  6  7  1  0
  7  8  2  0
  8  9  1  0
  9 10  2  0
 10 11  1  0
 11 12  1  0
 12 13  2  0
 13 14  1  0
 14 15  2  0
 15 16  1  0
 16 17  1  0
 17 18  2  0
 18 19  1  0
 19 20  1  0
 20 21  1  0
 21 22  1  0
 22 23  1  0
 23 24  2  0
 23 25  1  0
 25 26  1  0
 25 27  1  0
 27 28  1  0
 28 29  2  0
 29 30  1  0
 30 31  1  0
 31 32  1  0
 31 33  1  0
 15 34  1  0
 34 35  2  0
 10 36  1  0
 36 37  1  0
 36 38  2  0
  8  3  1  0
 35  9  1  0
 35 12  1  0
 29 17  1  0
 27 19  2  0
M  END
>  <Ki>  (1) 
nan

>  <IC50>  (1) 
 310

$$$$
