50715462
     RDKit          2D

 25 28  0  0  0  0  0  0  0  0999 V2000
   -3.0208  -10.0757    0.0000 C   0  0  0  0  0  0  0  0  0  0  0  0
   -3.3208   -8.6060    0.0000 O   0  0  0  0  0  0  0  0  0  0  0  0
   -2.1981   -7.6113    0.0000 C   0  0  0  0  0  0  0  0  0  0  0  0
   -0.7753   -8.0863    0.0000 C   0  0  0  0  0  0  0  0  0  0  0  0
    0.3475   -7.0916    0.0000 C   0  0  0  0  0  0  0  0  0  0  0  0
    0.3559   -5.5590    0.0000 C   0  0  0  0  0  0  0  0  0  0  0  0
    1.2570   -4.3598    0.0000 C   0  0  0  0  0  0  0  0  0  0  0  0
    1.4976   -2.8792    0.0000 C   0  0  0  0  0  0  0  0  0  0  0  0
    0.7500   -1.2990    0.0000 C   0  0  0  0  0  0  0  0  0  0  0  0
    1.5000    0.0000    0.0000 C   0  0  0  0  0  0  0  0  0  0  0  0
    0.7500    1.2990    0.0000 C   0  0  0  0  0  0  0  0  0  0  0  0
   -0.7500    1.2990    0.0000 C   0  0  0  0  0  0  0  0  0  0  0  0
   -1.5000    0.0000    0.0000 C   0  0  0  0  0  0  0  0  0  0  0  0
   -2.9697   -0.3000    0.0000 N   0  0  0  0  0  0  0  0  0  0  0  0
   -4.1316   -1.2487    0.0000 C   0  0  0  0  0  0  0  0  0  0  0  0
   -5.6627   -1.3188    0.0000 N   0  0  0  0  0  0  0  0  0  0  0  0
   -6.6113   -2.4807    0.0000 C   0  0  0  0  0  0  0  0  0  0  0  0
   -6.0794   -3.8832    0.0000 C   0  0  0  0  0  0  0  0  0  0  0  0
   -7.0281   -5.0451    0.0000 Cl  0  0  0  0  0  0  0  0  0  0  0  0
   -4.5988   -4.1238    0.0000 C   0  0  0  0  0  0  0  0  0  0  0  0
   -3.7971   -5.3916    0.0000 N   0  0  0  0  0  0  0  0  0  0  0  0
   -2.4981   -6.1416    0.0000 C   0  0  0  0  0  0  0  0  0  0  0  0
   -0.9993   -6.2020    0.0000 C   0  0  0  0  0  0  0  0  0  0  0  0
   -4.7195   -2.6287    0.0000 N   0  0  0  0  0  0  0  0  0  0  0  0
   -0.7500   -1.2990    0.0000 C   0  0  0  0  0  0  0  0  0  0  0  0
  1  2  1  0
  2  3  1  0
  3  4  2  0
  4  5  1  0
  5  6  2  0
  6  7  1  0
  7  8  1  0
  8  9  1  0
  9 10  1  0
 10 11  2  0
 11 12  1  0
 12 13  2  0
 13 14  1  0
 14 15  1  0
 15 16  1  0
 16 17  2  0
 17 18  1  0
 18 19  1  0
 18 20  2  0
 20 21  1  0
 21 22  1  0
 22 23  2  0
 20 24  1  0
 13 25  1  0
 22  3  1  0
 23  6  1  0
 25  9  2  0
 24 15  2  0
M  END
>  <Ki>  (1) 
nan

>  <IC50>  (1) 
 360

$$$$
