325858
     RDKit          2D

 28 31  0  0  0  0  0  0  0  0999 V2000
  -12.0193   -6.1147    0.0000 C   0  0  0  0  0  0  0  0  0  0  0  0
  -10.8058   -6.9964    0.0000 C   0  0  0  0  0  0  0  0  0  0  0  0
   -9.4354   -6.3863    0.0000 N   0  0  0  0  0  0  0  0  0  0  0  0
   -9.2786   -4.8945    0.0000 C   0  0  0  0  0  0  0  0  0  0  0  0
  -10.4922   -4.0128    0.0000 C   0  0  0  0  0  0  0  0  0  0  0  0
   -8.2219   -7.2679    0.0000 C   0  0  0  0  0  0  0  0  0  0  0  0
   -6.8516   -6.6578    0.0000 C   0  0  0  0  0  0  0  0  0  0  0  0
   -5.6381   -7.5395    0.0000 O   0  0  0  0  0  0  0  0  0  0  0  0
   -4.2677   -6.9294    0.0000 C   0  0  0  0  0  0  0  0  0  0  0  0
   -3.0542   -7.8111    0.0000 C   0  0  0  0  0  0  0  0  0  0  0  0
   -1.6839   -7.2010    0.0000 C   0  0  0  0  0  0  0  0  0  0  0  0
   -1.5271   -5.7092    0.0000 C   0  0  0  0  0  0  0  0  0  0  0  0
   -2.7406   -4.8275    0.0000 C   0  0  0  0  0  0  0  0  0  0  0  0
   -4.1110   -5.4376    0.0000 C   0  0  0  0  0  0  0  0  0  0  0  0
   -2.5838   -3.3357    0.0000 C   0  0  0  0  0  0  0  0  0  0  0  0
   -3.7974   -2.4540    0.0000 O   0  0  0  0  0  0  0  0  0  0  0  0
   -1.2135   -2.7256    0.0000 C   0  0  0  0  0  0  0  0  0  0  0  0
    0.0000   -3.6073    0.0000 C   0  0  0  0  0  0  0  0  0  0  0  0
    1.2135   -2.7256    0.0000 O   0  0  0  0  0  0  0  0  0  0  0  0
    0.7500   -1.2990    0.0000 C   0  0  0  0  0  0  0  0  0  0  0  0
    1.5000    0.0000    0.0000 C   0  0  0  0  0  0  0  0  0  0  0  0
    0.7500    1.2990    0.0000 C   0  0  0  0  0  0  0  0  0  0  0  0
   -0.7500    1.2990    0.0000 C   0  0  0  0  0  0  0  0  0  0  0  0
   -1.5000    0.0000    0.0000 C   0  0  0  0  0  0  0  0  0  0  0  0
   -0.7500   -1.2990    0.0000 C   0  0  0  0  0  0  0  0  0  0  0  0
   -0.1568   -5.0991    0.0000 C   0  0  0  0  0  0  0  0  0  0  0  0
    0.2061   -6.5545    0.0000 C   0  0  0  0  0  0  0  0  0  0  0  0
    1.3396   -4.9944    0.0000 C   0  0  0  0  0  0  0  0  0  0  0  0
  1  2  1  0
  2  3  1  0
  3  4  1  0
  4  5  1  0
  3  6  1  0
  6  7  1  0
  7  8  1  0
  8  9  1  0
  9 10  2  0
 10 11  1  0
 11 12  2  0
 12 13  1  0
 13 14  2  0
 13 15  1  0
 15 16  2  0
 15 17  1  0
 17 18  2  0
 18 19  1  0
 19 20  1  0
 20 21  2  0
 21 22  1  0
 22 23  2  0
 23 24  1  0
 24 25  2  0
 18 26  1  0
 26 27  1  0
 26 28  1  0
 14  9  1  0
 25 17  1  0
 26 12  1  0
 25 20  1  0
M  END
>  <Ki>  (1) 
nan

>  <IC50>  (1) 
 414.9

$$$$
