326458
     RDKit          2D

 32 37  0  0  0  0  0  0  0  0999 V2000
   -4.5866   -8.0069    0.0000 F   0  0  0  0  0  0  0  0  0  0  0  0
   -3.4046   -7.0834    0.0000 C   0  0  0  0  0  0  0  0  0  0  0  0
   -2.0138   -7.6454    0.0000 C   0  0  0  0  0  0  0  0  0  0  0  0
   -0.8318   -6.7219    0.0000 C   0  0  0  0  0  0  0  0  0  0  0  0
   -1.0406   -5.2365    0.0000 C   0  0  0  0  0  0  0  0  0  0  0  0
    0.3298   -4.6264    0.0000 Cl  0  0  0  0  0  0  0  0  0  0  0  0
   -2.4314   -4.6746    0.0000 C   0  0  0  0  0  0  0  0  0  0  0  0
   -3.6134   -5.5980    0.0000 C   0  0  0  0  0  0  0  0  0  0  0  0
   -5.0041   -5.0361    0.0000 Cl  0  0  0  0  0  0  0  0  0  0  0  0
   -2.6401   -3.1891    0.0000 C   0  0  0  0  0  0  0  0  0  0  0  0
   -4.1392   -3.1368    0.0000 C   0  0  0  0  0  0  0  0  0  0  0  0
   -3.3443   -1.8647    0.0000 C   0  0  0  0  0  0  0  0  0  0  0  0
   -1.2135   -2.7256    0.0000 C   0  0  0  0  0  0  0  0  0  0  0  0
   -0.0000   -3.6073    0.0000 N   0  0  0  0  0  0  0  0  0  0  0  0
    1.2135   -2.7256    0.0000 N   0  0  0  0  0  0  0  0  0  0  0  0
    0.7500   -1.2990    0.0000 C   0  0  0  0  0  0  0  0  0  0  0  0
    1.5000    0.0000    0.0000 N   0  0  0  0  0  0  0  0  0  0  0  0
    0.7500    1.2990    0.0000 C   0  0  0  0  0  0  0  0  0  0  0  0
   -0.7500    1.2990    0.0000 C   0  0  0  0  0  0  0  0  0  0  0  0
   -1.5000    0.0000    0.0000 C   0  0  0  0  0  0  0  0  0  0  0  0
   -0.7500   -1.2990    0.0000 C   0  0  0  0  0  0  0  0  0  0  0  0
   -1.5000    2.5981    0.0000 C   0  0  0  0  0  0  0  0  0  0  0  0
   -2.9918    2.7549    0.0000 C   0  0  0  0  0  0  0  0  0  0  0  0
   -3.3037    4.2221    0.0000 N   0  0  0  0  0  0  0  0  0  0  0  0
   -2.0046    4.9721    0.0000 N   0  0  0  0  0  0  0  0  0  0  0  0
   -0.8899    3.9684    0.0000 C   0  0  0  0  0  0  0  0  0  0  0  0
   -1.8478    6.4639    0.0000 C   0  0  0  0  0  0  0  0  0  0  0  0
   -0.4775    7.0740    0.0000 C   0  0  0  0  0  0  0  0  0  0  0  0
   -0.3207    8.5658    0.0000 C   0  0  0  0  0  0  0  0  0  0  0  0
   -1.5342    9.4474    0.0000 N   0  0  0  0  0  0  0  0  0  0  0  0
   -2.9046    8.8373    0.0000 C   0  0  0  0  0  0  0  0  0  0  0  0
   -3.0613    7.3456    0.0000 C   0  0  0  0  0  0  0  0  0  0  0  0
  1  2  1  0
  2  3  2  0
  3  4  1  0
  4  5  2  0
  5  6  1  0
  5  7  1  0
  7  8  2  0
  8  9  1  0
  7 10  1  0
 10 11  1  0
 11 12  1  0
 10 13  1  0
 13 14  2  0
 14 15  1  0
 15 16  1  0
 16 17  2  0
 17 18  1  0
 18 19  2  0
 19 20  1  0
 20 21  2  0
 19 22  1  0
 22 23  1  0
 23 24  2  0
 24 25  1  0
 25 26  1  0
 25 27  1  0
 27 28  1  0
 28 29  1  0
 29 30  1  0
 30 31  1  0
 31 32  1  0
  8  2  1  0
 12 10  1  0
 21 13  1  0
 26 22  2  0
 32 27  1  0
 21 16  1  0
M  END
>  <Ki>  (1) 
nan

>  <IC50>  (1) 
 508

$$$$
