51114447
     RDKit          2D

 38 44  0  0  0  0  0  0  0  0999 V2000
   -7.0862   -3.8816    0.0000 N   0  0  0  0  0  0  0  0  0  0  0  0
   -6.4557   -5.2427    0.0000 C   0  0  0  0  0  0  0  0  0  0  0  0
   -7.1862   -6.5528    0.0000 N   0  0  0  0  0  0  0  0  0  0  0  0
   -6.1659   -7.6524    0.0000 C   0  0  0  0  0  0  0  0  0  0  0  0
   -6.4558   -9.1241    0.0000 N   0  0  0  0  0  0  0  0  0  0  0  0
   -7.8753   -9.6089    0.0000 C   0  0  0  0  0  0  0  0  0  0  0  0
   -9.0049   -8.6220    0.0000 C   0  0  0  0  0  0  0  0  0  0  0  0
  -10.4244   -9.1068    0.0000 C   0  0  0  0  0  0  0  0  0  0  0  0
  -10.7143  -10.5785    0.0000 C   0  0  0  0  0  0  0  0  0  0  0  0
  -12.1902  -10.8464    0.0000 C   0  0  0  0  0  0  0  0  0  0  0  0
  -12.9010  -12.1673    0.0000 C   0  0  0  0  0  0  0  0  0  0  0  0
  -12.3114  -13.5466    0.0000 C   0  0  0  0  0  0  0  0  0  0  0  0
  -10.8655  -13.9456    0.0000 C   0  0  0  0  0  0  0  0  0  0  0  0
   -9.6520  -13.0639    0.0000 C   0  0  0  0  0  0  0  0  0  0  0  0
   -9.5847  -11.5654    0.0000 C   0  0  0  0  0  0  0  0  0  0  0  0
   -8.1652  -11.0806    0.0000 C   0  0  0  0  0  0  0  0  0  0  0  0
  -13.2983  -14.6762    0.0000 N   0  0  0  0  0  0  0  0  0  0  0  0
  -12.9646  -16.1386    0.0000 C   0  0  0  0  0  0  0  0  0  0  0  0
  -14.2522  -16.9079    0.0000 C   0  0  0  0  0  0  0  0  0  0  0  0
  -15.3818  -15.9210    0.0000 C   0  0  0  0  0  0  0  0  0  0  0  0
  -14.7923  -14.5417    0.0000 C   0  0  0  0  0  0  0  0  0  0  0  0
   -4.8049   -7.0218    0.0000 N   0  0  0  0  0  0  0  0  0  0  0  0
   -4.9840   -5.5326    0.0000 N   0  0  0  0  0  0  0  0  0  0  0  0
   -3.8844   -4.5123    0.0000 C   0  0  0  0  0  0  0  0  0  0  0  0
   -2.4510   -4.9544    0.0000 C   0  0  0  0  0  0  0  0  0  0  0  0
   -1.3515   -3.9342    0.0000 C   0  0  0  0  0  0  0  0  0  0  0  0
    0.0000   -4.5850    0.0000 C   0  0  0  0  0  0  0  0  0  0  0  0
    1.3515   -3.9342    0.0000 C   0  0  0  0  0  0  0  0  0  0  0  0
    1.6852   -2.4718    0.0000 C   0  0  0  0  0  0  0  0  0  0  0  0
    0.7500   -1.2990    0.0000 C   0  0  0  0  0  0  0  0  0  0  0  0
    1.5000    0.0000    0.0000 C   0  0  0  0  0  0  0  0  0  0  0  0
    0.7500    1.2990    0.0000 C   0  0  0  0  0  0  0  0  0  0  0  0
   -0.7500    1.2990    0.0000 C   0  0  0  0  0  0  0  0  0  0  0  0
   -1.5000    0.0000    0.0000 C   0  0  0  0  0  0  0  0  0  0  0  0
   -0.7500   -1.2990    0.0000 C   0  0  0  0  0  0  0  0  0  0  0  0
   -1.6852   -2.4718    0.0000 C   0  0  0  0  0  0  0  0  0  0  0  0
   -3.1186   -2.0297    0.0000 N   0  0  0  0  0  0  0  0  0  0  0  0
   -4.2182   -3.0499    0.0000 N   0  0  0  0  0  0  0  0  0  0  0  0
  1  2  1  0
  2  3  2  0
  3  4  1  0
  4  5  1  0
  5  6  1  0
  6  7  2  0
  7  8  1  0
  8  9  2  0
  9 10  1  0
 10 11  1  0
 11 12  1  0
 12 13  1  0
 13 14  1  0
 14 15  1  0
 15 16  2  0
 12 17  1  1
 17 18  1  0
 18 19  1  0
 19 20  1  0
 20 21  1  0
  4 22  2  0
 22 23  1  0
 23 24  1  0
 24 25  2  0
 25 26  1  0
 26 27  1  0
 27 28  1  0
 28 29  1  0
 29 30  1  0
 30 31  2  0
 31 32  1  0
 32 33  2  0
 33 34  1  0
 34 35  2  0
 35 36  1  0
 36 37  1  0
 37 38  2  0
 23  2  1  0
 38 24  1  0
 16  6  1  0
 21 17  1  0
 36 26  2  0
 15  9  1  0
 35 30  1  0
M  END
>  <Ki>  (1) 
nan

>  <IC50>  (1) 
 530

$$$$
