226274
     RDKit          2D

 50 55  0  0  0  0  0  0  0  0999 V2000
  -15.3217    7.5000    0.0000 C   0  0  0  0  0  0  0  0  0  0  0  0
  -15.3217    6.0000    0.0000 O   0  0  0  0  0  0  0  0  0  0  0  0
  -14.0227    5.2500    0.0000 C   0  0  0  0  0  0  0  0  0  0  0  0
  -14.0227    3.7500    0.0000 C   0  0  0  0  0  0  0  0  0  0  0  0
  -12.7236    3.0000    0.0000 N   0  0  0  0  0  0  0  0  0  0  0  0
  -11.4246    3.7500    0.0000 C   0  0  0  0  0  0  0  0  0  0  0  0
  -10.1256    3.0000    0.0000 C   0  0  0  0  0  0  0  0  0  0  0  0
  -10.1256    1.5000    0.0000 C   0  0  0  0  0  0  0  0  0  0  0  0
  -11.4246    0.7500    0.0000 C   0  0  0  0  0  0  0  0  0  0  0  0
  -12.7236    1.5000    0.0000 C   0  0  0  0  0  0  0  0  0  0  0  0
   -8.8265    0.7500    0.0000 C   0  0  0  0  0  0  0  0  0  0  0  0
   -8.8265   -0.7500    0.0000 C   0  0  0  0  0  0  0  0  0  0  0  0
   -7.5275   -1.5000    0.0000 C   0  0  0  0  0  0  0  0  0  0  0  0
   -7.5275   -3.0000    0.0000 O   0  0  0  0  0  0  0  0  0  0  0  0
   -8.8265   -3.7500    0.0000 C   0  0  0  0  0  0  0  0  0  0  0  0
   -8.8265   -5.2500    0.0000 C   0  0  0  0  0  0  0  0  0  0  0  0
  -10.1256   -3.0000    0.0000 C   0  0  0  0  0  0  0  0  0  0  0  0
   -6.2284   -0.7500    0.0000 C   0  0  0  0  0  0  0  0  0  0  0  0
   -4.9294   -1.5000    0.0000 N   0  0  0  0  0  0  0  0  0  0  0  0
   -3.6304   -0.7500    0.0000 C   0  0  0  0  0  0  0  0  0  0  0  0
   -3.6304    0.7500    0.0000 N   0  0  0  0  0  0  0  0  0  0  0  0
   -2.3313    1.5000    0.0000 C   0  0  0  0  0  0  0  0  0  0  0  0
   -2.3313    3.0000    0.0000 N   0  0  0  0  0  0  0  0  0  0  0  0
   -3.6304    3.7500    0.0000 C   0  0  0  0  0  0  0  0  0  0  0  0
   -4.9294    3.0000    0.0000 C   0  0  0  0  0  0  0  0  0  0  0  0
   -6.2284    3.7500    0.0000 C   0  0  0  0  0  0  0  0  0  0  0  0
   -6.2284    5.2500    0.0000 C   0  0  0  0  0  0  0  0  0  0  0  0
   -4.9294    6.0000    0.0000 C   0  0  0  0  0  0  0  0  0  0  0  0
   -3.6304    5.2500    0.0000 C   0  0  0  0  0  0  0  0  0  0  0  0
   -2.3313    6.0000    0.0000 S   0  0  0  0  0  0  0  0  0  0  0  0
   -1.5813    4.7010    0.0000 O   0  0  0  0  0  0  0  0  0  0  0  0
   -3.0813    7.2990    0.0000 O   0  0  0  0  0  0  0  0  0  0  0  0
   -1.0323    6.7500    0.0000 C   0  0  0  0  0  0  0  0  0  0  0  0
    0.2668    6.0000    0.0000 C   0  0  0  0  0  0  0  0  0  0  0  0
   -1.0323    8.2500    0.0000 C   0  0  0  0  0  0  0  0  0  0  0  0
   -1.0323    0.7500    0.0000 C   0  0  0  0  0  0  0  0  0  0  0  0
    0.3943    1.2135    0.0000 C   0  0  0  0  0  0  0  0  0  0  0  0
    1.2760    0.0000    0.0000 N   0  0  0  0  0  0  0  0  0  0  0  0
    0.3943   -1.2135    0.0000 N   0  0  0  0  0  0  0  0  0  0  0  0
   -1.0323   -0.7500    0.0000 C   0  0  0  0  0  0  0  0  0  0  0  0
   -2.3313   -1.5000    0.0000 N   0  0  0  0  0  0  0  0  0  0  0  0
    0.8578    2.6401    0.0000 C   0  0  0  0  0  0  0  0  0  0  0  0
    2.3250    2.9520    0.0000 C   0  0  0  0  0  0  0  0  0  0  0  0
    2.7886    4.3786    0.0000 C   0  0  0  0  0  0  0  0  0  0  0  0
    1.7849    5.4933    0.0000 C   0  0  0  0  0  0  0  0  0  0  0  0
    0.3177    5.1814    0.0000 C   0  0  0  0  0  0  0  0  0  0  0  0
   -0.1459    3.7548    0.0000 C   0  0  0  0  0  0  0  0  0  0  0  0
   -6.2284    0.7500    0.0000 C   0  0  0  0  0  0  0  0  0  0  0  0
   -7.5275    1.5000    0.0000 C   0  0  0  0  0  0  0  0  0  0  0  0
   -7.5275    3.0000    0.0000 C   0  0  0  0  0  0  0  0  0  0  0  0
  1  2  1  0
  2  3  1  0
  3  4  1  0
  4  5  1  0
  5  6  1  0
  6  7  1  0
  7  8  1  0
  8  9  1  0
  9 10  1  0
  8 11  1  0
 11 12  2  0
 12 13  1  0
 13 14  1  0
 14 15  1  0
 15 16  1  0
 15 17  1  0
 13 18  2  0
 18 19  1  0
 19 20  1  0
 20 21  1  0
 21 22  2  0
 22 23  1  0
 23 24  1  0
 24 25  2  0
 25 26  1  0
 26 27  2  0
 27 28  1  0
 28 29  2  0
 29 30  1  0
 30 31  2  0
 30 32  2  0
 30 33  1  0
 33 34  1  0
 33 35  1  0
 22 36  1  0
 36 37  2  0
 37 38  1  0
 38 39  1  0
 39 40  2  0
 40 41  1  0
 37 42  1  0
 42 43  2  0
 43 44  1  0
 44 45  2  0
 45 46  1  0
 46 47  2  0
 18 48  1  0
 48 49  2  0
 49 50  1  0
 10  5  1  0
 49 11  1  0
 41 20  2  0
 47 42  1  0
 29 24  1  0
 40 36  1  0
M  END
>  <Ki>  (1) 
nan

>  <IC50>  (1) 
 579

$$$$
