50103712
     RDKit          2D

 26 29  0  0  0  0  0  0  0  0999 V2000
   -1.3829   -9.7634    0.0000 C   0  0  0  0  0  0  0  0  0  0  0  0
   -0.1087   -8.9719    0.0000 N   0  0  0  0  0  0  0  0  0  0  0  0
    1.2806   -9.5375    0.0000 N   0  0  0  0  0  0  0  0  0  0  0  0
    2.2479   -8.3911    0.0000 C   0  0  0  0  0  0  0  0  0  0  0  0
    1.4564   -7.1169    0.0000 C   0  0  0  0  0  0  0  0  0  0  0  0
    2.5792   -6.1222    0.0000 C   0  0  0  0  0  0  0  0  0  0  0  0
    3.1111   -4.7197    0.0000 C   0  0  0  0  0  0  0  0  0  0  0  0
    2.9303   -3.2306    0.0000 C   0  0  0  0  0  0  0  0  0  0  0  0
    2.0782   -1.9961    0.0000 O   0  0  0  0  0  0  0  0  0  0  0  0
    0.7500   -1.2990    0.0000 C   0  0  0  0  0  0  0  0  0  0  0  0
    1.5000    0.0000    0.0000 C   0  0  0  0  0  0  0  0  0  0  0  0
    0.7500    1.2990    0.0000 C   0  0  0  0  0  0  0  0  0  0  0  0
   -0.7500    1.2990    0.0000 C   0  0  0  0  0  0  0  0  0  0  0  0
   -1.5000    2.5981    0.0000 F   0  0  0  0  0  0  0  0  0  0  0  0
   -1.5000    0.0000    0.0000 C   0  0  0  0  0  0  0  0  0  0  0  0
   -0.7500   -1.2990    0.0000 C   0  0  0  0  0  0  0  0  0  0  0  0
   -2.0782   -1.9961    0.0000 C   0  0  0  0  0  0  0  0  0  0  0  0
   -2.9303   -3.2306    0.0000 O   0  0  0  0  0  0  0  0  0  0  0  0
   -3.1111   -4.7197    0.0000 C   0  0  0  0  0  0  0  0  0  0  0  0
   -2.5792   -6.1222    0.0000 C   0  0  0  0  0  0  0  0  0  0  0  0
   -1.4564   -7.1169    0.0000 C   0  0  0  0  0  0  0  0  0  0  0  0
   -2.8697   -7.7099    0.0000 C   0  0  0  0  0  0  0  0  0  0  0  0
   -4.2249   -7.0669    0.0000 N   0  0  0  0  0  0  0  0  0  0  0  0
   -4.3456   -5.5718    0.0000 C   0  0  0  0  0  0  0  0  0  0  0  0
   -5.7007   -4.9287    0.0000 N   0  0  0  0  0  0  0  0  0  0  0  0
   -0.0000   -7.4758    0.0000 C   0  0  0  0  0  0  0  0  0  0  0  0
  1  2  1  0
  2  3  1  0
  3  4  2  0
  4  5  1  0
  5  6  1  0
  6  7  1  0
  7  8  1  0
  8  9  1  0
  9 10  1  0
 10 11  2  0
 11 12  1  0
 12 13  2  0
 13 14  1  0
 13 15  1  0
 15 16  2  0
 16 17  1  0
 17 18  1  0
 18 19  1  0
 19 20  1  0
 20 21  2  0
 21 22  1  0
 22 23  2  0
 23 24  1  0
 24 25  1  0
 21 26  1  0
 26  2  1  0
 26  5  2  0
 16 10  1  0
 24 19  2  0
M  END
>  <Ki>  (1) 
nan

>  <IC50>  (1) 
 654

$$$$
