427369
     RDKit          2D

 36 41  0  0  0  0  0  0  0  0999 V2000
    6.7500   -3.8971    0.0000 C   0  0  0  0  0  0  0  0  0  0  0  0
    5.2500   -3.8971    0.0000 O   0  0  0  0  0  0  0  0  0  0  0  0
    4.5000   -5.1962    0.0000 C   0  0  0  0  0  0  0  0  0  0  0  0
    5.2500   -6.4952    0.0000 C   0  0  0  0  0  0  0  0  0  0  0  0
    4.5000   -7.7942    0.0000 C   0  0  0  0  0  0  0  0  0  0  0  0
    3.0000   -7.7942    0.0000 C   0  0  0  0  0  0  0  0  0  0  0  0
    2.2500   -6.4952    0.0000 C   0  0  0  0  0  0  0  0  0  0  0  0
    3.0000   -5.1962    0.0000 C   0  0  0  0  0  0  0  0  0  0  0  0
    2.2500   -3.8971    0.0000 C   0  0  0  0  0  0  0  0  0  0  0  0
    1.5000   -2.5981    0.0000 C   0  0  0  0  0  0  0  0  0  0  0  0
    0.7500   -1.2990    0.0000 C   0  0  0  0  0  0  0  0  0  0  0  0
    1.5000    0.0000    0.0000 C   0  0  0  0  0  0  0  0  0  0  0  0
    0.7500    1.2990    0.0000 C   0  0  0  0  0  0  0  0  0  0  0  0
   -0.7500    1.2990    0.0000 N   0  0  0  0  0  0  0  0  0  0  0  0
   -1.5000    0.0000    0.0000 C   0  0  0  0  0  0  0  0  0  0  0  0
   -2.9672   -0.3119    0.0000 N   0  0  0  0  0  0  0  0  0  0  0  0
   -3.1240   -1.8037    0.0000 C   0  0  0  0  0  0  0  0  0  0  0  0
   -4.3375   -2.6853    0.0000 C   0  0  0  0  0  0  0  0  0  0  0  0
   -4.1807   -4.1771    0.0000 C   0  0  0  0  0  0  0  0  0  0  0  0
   -2.8104   -4.7872    0.0000 C   0  0  0  0  0  0  0  0  0  0  0  0
   -1.5969   -3.9055    0.0000 C   0  0  0  0  0  0  0  0  0  0  0  0
   -1.7537   -2.4138    0.0000 C   0  0  0  0  0  0  0  0  0  0  0  0
   -0.7500   -1.2990    0.0000 C   0  0  0  0  0  0  0  0  0  0  0  0
   -2.6536   -6.2790    0.0000 C   0  0  0  0  0  0  0  0  0  0  0  0
   -3.8672   -7.1607    0.0000 C   0  0  0  0  0  0  0  0  0  0  0  0
   -3.7104   -8.6525    0.0000 C   0  0  0  0  0  0  0  0  0  0  0  0
   -2.3401   -9.2626    0.0000 C   0  0  0  0  0  0  0  0  0  0  0  0
   -1.1265   -8.3809    0.0000 C   0  0  0  0  0  0  0  0  0  0  0  0
   -1.2833   -6.8891    0.0000 C   0  0  0  0  0  0  0  0  0  0  0  0
   -2.1833  -10.7543    0.0000 N   0  0  0  0  0  0  0  0  0  0  0  0
   -3.3968  -11.6360    0.0000 C   0  0  0  0  0  0  0  0  0  0  0  0
   -3.2400  -13.1278    0.0000 C   0  0  0  0  0  0  0  0  0  0  0  0
   -1.8697  -13.7379    0.0000 N   0  0  0  0  0  0  0  0  0  0  0  0
   -1.7129  -15.2297    0.0000 C   0  0  0  0  0  0  0  0  0  0  0  0
   -0.6561  -12.8562    0.0000 C   0  0  0  0  0  0  0  0  0  0  0  0
   -0.8129  -11.3645    0.0000 C   0  0  0  0  0  0  0  0  0  0  0  0
  1  2  1  0
  2  3  1  0
  3  4  2  0
  4  5  1  0
  5  6  2  0
  6  7  1  0
  7  8  2  0
  8  9  1  0
  9 10  3  0
 10 11  1  0
 11 12  2  0
 12 13  1  0
 13 14  2  0
 14 15  1  0
 15 16  1  0
 16 17  1  0
 17 18  2  0
 18 19  1  0
 19 20  2  0
 20 21  1  0
 21 22  2  0
 22 23  1  0
 20 24  1  0
 24 25  2  0
 25 26  1  0
 26 27  2  0
 27 28  1  0
 28 29  2  0
 27 30  1  0
 30 31  1  0
 31 32  1  0
 32 33  1  0
 33 34  1  0
 33 35  1  0
 35 36  1  0
  8  3  1  0
 23 11  1  0
 29 24  1  0
 36 30  1  0
 23 15  2  0
 22 17  1  0
M  END
>  <Ki>  (1) 
nan

>  <IC50>  (1) 
 750

$$$$
