51019996
     RDKit          2D

 26 27  0  0  0  0  0  0  0  0999 V2000
    3.7500   -1.2990    0.0000 C   0  0  0  0  0  0  0  0  0  0  0  0
    3.0000    0.0000    0.0000 O   0  0  0  0  0  0  0  0  0  0  0  0
    1.5000    0.0000    0.0000 C   0  0  0  0  0  0  0  0  0  0  0  0
    0.7500   -1.2990    0.0000 C   0  0  0  0  0  0  0  0  0  0  0  0
   -0.7500   -1.2990    0.0000 C   0  0  0  0  0  0  0  0  0  0  0  0
   -1.3361   -2.6798    0.0000 O   0  0  0  0  0  0  0  0  0  0  0  0
   -1.5000    0.0000    0.0000 C   0  0  0  0  0  0  0  0  0  0  0  0
   -0.7500    1.2990    0.0000 C   0  0  0  0  0  0  0  0  0  0  0  0
   -0.6379    2.7948    0.0000 C   0  0  0  0  0  0  0  0  0  0  0  0
   -1.1859    4.1912    0.0000 C   0  0  0  0  0  0  0  0  0  0  0  0
   -2.2855    5.2114    0.0000 C   0  0  0  0  0  0  0  0  0  0  0  0
   -3.7189    5.6535    0.0000 C   0  0  0  0  0  0  0  0  0  0  0  0
   -3.6068    7.1494    0.0000 O   0  0  0  0  0  0  0  0  0  0  0  0
   -5.2021    5.4300    0.0000 C   0  0  0  0  0  0  0  0  0  0  0  0
   -5.7501    6.8263    0.0000 O   0  0  0  0  0  0  0  0  0  0  0  0
   -6.4415    4.5850    0.0000 C   0  0  0  0  0  0  0  0  0  0  0  0
   -7.5410    5.6053    0.0000 O   0  0  0  0  0  0  0  0  0  0  0  0
   -7.1915    3.2860    0.0000 C   0  0  0  0  0  0  0  0  0  0  0  0
   -7.3036    1.7902    0.0000 C   0  0  0  0  0  0  0  0  0  0  0  0
   -6.7555    0.3938    0.0000 C   0  0  0  0  0  0  0  0  0  0  0  0
   -5.6560   -0.6264    0.0000 C   0  0  0  0  0  0  0  0  0  0  0  0
   -6.4060   -1.9254    0.0000 C   0  0  0  0  0  0  0  0  0  0  0  0
   -4.2226   -1.0685    0.0000 O   0  0  0  0  0  0  0  0  0  0  0  0
   -2.7394   -0.8450    0.0000 C   0  0  0  0  0  0  0  0  0  0  0  0
   -2.3656   -2.2977    0.0000 O   0  0  0  0  0  0  0  0  0  0  0  0
    0.7500    1.2990    0.0000 C   0  0  0  0  0  0  0  0  0  0  0  0
  1  2  1  0
  2  3  1  0
  3  4  2  0
  4  5  1  0
  5  6  1  0
  5  7  2  0
  7  8  1  0
  8  9  1  0
  9 10  1  0
 10 11  1  0
 11 12  1  0
 12 13  2  0
 12 14  1  0
 14 15  2  0
 14 16  1  0
 16 17  1  0
 16 18  1  0
 18 19  1  0
 19 20  1  0
 20 21  1  0
 21 22  1  1
 21 23  1  0
 23 24  1  0
 24 25  2  0
  8 26  2  0
 26  3  1  0
 24  7  1  0
M  END
>  <Ki>  (1) 
nan

>  <IC50>  (1) 
 763

$$$$
