50234967
     RDKit          2D

 39 43  0  0  0  0  0  0  0  0999 V2000
   -0.0000  -12.6073    0.0000 C   0  0  0  0  0  0  0  0  0  0  0  0
   -1.2990  -13.3573    0.0000 C   0  0  0  0  0  0  0  0  0  0  0  0
   -1.2990  -14.8573    0.0000 C   0  0  0  0  0  0  0  0  0  0  0  0
   -2.5981  -12.6073    0.0000 S   0  0  0  0  0  0  0  0  0  0  0  0
   -1.8481  -11.3083    0.0000 O   0  0  0  0  0  0  0  0  0  0  0  0
   -3.3481  -13.9063    0.0000 O   0  0  0  0  0  0  0  0  0  0  0  0
   -3.8971  -11.8573    0.0000 C   0  0  0  0  0  0  0  0  0  0  0  0
   -5.1962  -12.6073    0.0000 C   0  0  0  0  0  0  0  0  0  0  0  0
   -6.4952  -11.8573    0.0000 C   0  0  0  0  0  0  0  0  0  0  0  0
   -6.4952  -10.3573    0.0000 C   0  0  0  0  0  0  0  0  0  0  0  0
   -5.1962   -9.6073    0.0000 C   0  0  0  0  0  0  0  0  0  0  0  0
   -3.8971  -10.3573    0.0000 C   0  0  0  0  0  0  0  0  0  0  0  0
   -2.5981   -9.6073    0.0000 N   0  0  0  0  0  0  0  0  0  0  0  0
   -2.5981   -8.1073    0.0000 C   0  0  0  0  0  0  0  0  0  0  0  0
   -1.2990   -7.3573    0.0000 N   0  0  0  0  0  0  0  0  0  0  0  0
   -1.2990   -5.8573    0.0000 C   0  0  0  0  0  0  0  0  0  0  0  0
    0.0000   -5.1073    0.0000 N   0  0  0  0  0  0  0  0  0  0  0  0
    0.0000   -3.6073    0.0000 C   0  0  0  0  0  0  0  0  0  0  0  0
    1.2135   -2.7256    0.0000 N   0  0  0  0  0  0  0  0  0  0  0  0
    0.7500   -1.2990    0.0000 C   0  0  0  0  0  0  0  0  0  0  0  0
    1.5000    0.0000    0.0000 C   0  0  0  0  0  0  0  0  0  0  0  0
    0.7500    1.2990    0.0000 C   0  0  0  0  0  0  0  0  0  0  0  0
   -0.7500    1.2990    0.0000 N   0  0  0  0  0  0  0  0  0  0  0  0
   -1.5000    2.5981    0.0000 C   0  0  0  0  0  0  0  0  0  0  0  0
   -0.7500    3.8971    0.0000 C   0  0  0  0  0  0  0  0  0  0  0  0
    0.7500    3.8971    0.0000 O   0  0  0  0  0  0  0  0  0  0  0  0
   -1.5000    5.1962    0.0000 N   0  0  0  0  0  0  0  0  0  0  0  0
   -0.7500    6.4952    0.0000 C   0  0  0  0  0  0  0  0  0  0  0  0
   -1.5000    7.7942    0.0000 C   0  0  0  0  0  0  0  0  0  0  0  0
   -3.0000    7.7942    0.0000 O   0  0  0  0  0  0  0  0  0  0  0  0
   -3.7500    6.4952    0.0000 C   0  0  0  0  0  0  0  0  0  0  0  0
   -3.0000    5.1962    0.0000 C   0  0  0  0  0  0  0  0  0  0  0  0
   -1.5000    0.0000    0.0000 C   0  0  0  0  0  0  0  0  0  0  0  0
   -0.7500   -1.2990    0.0000 C   0  0  0  0  0  0  0  0  0  0  0  0
   -1.2135   -2.7256    0.0000 S   0  0  0  0  0  0  0  0  0  0  0  0
   -2.5981   -5.1073    0.0000 N   0  0  0  0  0  0  0  0  0  0  0  0
   -3.8971   -5.8573    0.0000 C   0  0  0  0  0  0  0  0  0  0  0  0
   -3.8971   -7.3573    0.0000 C   0  0  0  0  0  0  0  0  0  0  0  0
   -5.1962   -8.1073    0.0000 Cl  0  0  0  0  0  0  0  0  0  0  0  0
  1  2  1  0
  2  3  1  0
  2  4  1  0
  4  5  2  0
  4  6  2  0
  4  7  1  0
  7  8  2  0
  8  9  1  0
  9 10  2  0
 10 11  1  0
 11 12  2  0
 12 13  1  0
 13 14  1  0
 14 15  2  0
 15 16  1  0
 16 17  1  0
 17 18  1  0
 18 19  2  0
 19 20  1  0
 20 21  1  0
 21 22  1  0
 22 23  1  0
 23 24  1  0
 24 25  1  0
 25 26  2  0
 25 27  1  0
 27 28  1  0
 28 29  1  0
 29 30  1  0
 30 31  1  0
 31 32  1  0
 23 33  1  0
 33 34  1  0
 34 35  1  0
 16 36  2  0
 36 37  1  0
 37 38  2  0
 38 39  1  0
 12  7  1  0
 38 14  1  0
 35 18  1  0
 34 20  2  0
 32 27  1  0
M  END
>  <Ki>  (1) 
nan

>  <IC50>  (1) 
 775

$$$$
