355491
     RDKit          2D

 33 37  0  0  0  0  0  0  0  0999 V2000
   11.0591   -7.6179    0.0000 C   0  0  0  0  0  0  0  0  0  0  0  0
   10.9023   -6.1262    0.0000 C   0  0  0  0  0  0  0  0  0  0  0  0
    9.5320   -5.5161    0.0000 O   0  0  0  0  0  0  0  0  0  0  0  0
    8.3185   -6.3977    0.0000 C   0  0  0  0  0  0  0  0  0  0  0  0
    6.9482   -5.7876    0.0000 C   0  0  0  0  0  0  0  0  0  0  0  0
    5.7346   -6.6693    0.0000 C   0  0  0  0  0  0  0  0  0  0  0  0
    5.8914   -8.1611    0.0000 C   0  0  0  0  0  0  0  0  0  0  0  0
    7.2617   -8.7712    0.0000 N   0  0  0  0  0  0  0  0  0  0  0  0
    8.4753   -7.8895    0.0000 C   0  0  0  0  0  0  0  0  0  0  0  0
    9.8456   -8.4996    0.0000 N   0  0  0  0  0  0  0  0  0  0  0  0
    4.3643   -6.0592    0.0000 C   0  0  0  0  0  0  0  0  0  0  0  0
    3.0653   -6.8092    0.0000 C   0  0  0  0  0  0  0  0  0  0  0  0
    1.9506   -5.8055    0.0000 N   0  0  0  0  0  0  0  0  0  0  0  0
    2.5607   -4.4352    0.0000 N   0  0  0  0  0  0  0  0  0  0  0  0
    4.0524   -4.5920    0.0000 C   0  0  0  0  0  0  0  0  0  0  0  0
    1.8107   -3.1362    0.0000 C   0  0  0  0  0  0  0  0  0  0  0  0
    2.1989   -1.6873    0.0000 C   0  0  0  0  0  0  0  0  0  0  0  0
    0.7500   -1.2990    0.0000 C   0  0  0  0  0  0  0  0  0  0  0  0
    0.3618   -2.7479    0.0000 C   0  0  0  0  0  0  0  0  0  0  0  0
    1.5000    0.0000    0.0000 C   0  0  0  0  0  0  0  0  0  0  0  0
    0.7500    1.2990    0.0000 C   0  0  0  0  0  0  0  0  0  0  0  0
   -0.7500    1.2990    0.0000 N   0  0  0  0  0  0  0  0  0  0  0  0
   -1.5000    0.0000    0.0000 C   0  0  0  0  0  0  0  0  0  0  0  0
   -0.7500   -1.2990    0.0000 C   0  0  0  0  0  0  0  0  0  0  0  0
   12.1158   -5.2445    0.0000 C   0  0  0  0  0  0  0  0  0  0  0  0
   11.9590   -3.7527    0.0000 C   0  0  0  0  0  0  0  0  0  0  0  0
   10.5887   -3.1426    0.0000 Cl  0  0  0  0  0  0  0  0  0  0  0  0
   13.1726   -2.8710    0.0000 C   0  0  0  0  0  0  0  0  0  0  0  0
   14.5429   -3.4811    0.0000 C   0  0  0  0  0  0  0  0  0  0  0  0
   14.6997   -4.9729    0.0000 C   0  0  0  0  0  0  0  0  0  0  0  0
   16.0700   -5.5830    0.0000 F   0  0  0  0  0  0  0  0  0  0  0  0
   13.4862   -5.8546    0.0000 C   0  0  0  0  0  0  0  0  0  0  0  0
   13.6430   -7.3464    0.0000 Cl  0  0  0  0  0  0  0  0  0  0  0  0
  2  1  1  1
  2  3  1  0
  3  4  1  0
  4  5  2  0
  5  6  1  0
  6  7  2  0
  7  8  1  0
  8  9  2  0
  9 10  1  0
  6 11  1  0
 11 12  1  0
 12 13  2  0
 13 14  1  0
 14 15  1  0
 14 16  1  0
 16 17  1  0
 17 18  1  0
 18 19  1  0
 18 20  1  0
 20 21  1  0
 21 22  1  0
 22 23  1  0
 23 24  1  0
  2 25  1  0
 25 26  2  0
 26 27  1  0
 26 28  1  0
 28 29  2  0
 29 30  1  0
 30 31  1  0
 30 32  2  0
 32 33  1  0
  9  4  1  0
 15 11  2  0
 19 16  1  0
 32 25  1  0
 24 18  1  0
M  END
>  <Ki>  (1) 
nan

>  <IC50>  (1) 
 1.2

$$$$
