325759
     RDKit          2D

 31 34  0  0  0  0  0  0  0  0999 V2000
   -2.6491   -1.6339    0.0000 C   0  0  0  0  0  0  0  0  0  0  0  0
   -1.5000   -2.5981    0.0000 C   0  0  0  0  0  0  0  0  0  0  0  0
   -2.6491   -3.5623    0.0000 C   0  0  0  0  0  0  0  0  0  0  0  0
   -0.7500   -3.8971    0.0000 C   0  0  0  0  0  0  0  0  0  0  0  0
   -1.2135   -5.3237    0.0000 N   0  0  0  0  0  0  0  0  0  0  0  0
   -0.0000   -6.2054    0.0000 C   0  0  0  0  0  0  0  0  0  0  0  0
    0.1568   -7.6972    0.0000 C   0  0  0  0  0  0  0  0  0  0  0  0
   -1.0567   -8.5788    0.0000 C   0  0  0  0  0  0  0  0  0  0  0  0
   -2.4271   -7.9687    0.0000 N   0  0  0  0  0  0  0  0  0  0  0  0
   -0.8999  -10.0706    0.0000 O   0  0  0  0  0  0  0  0  0  0  0  0
    1.5271   -8.3073    0.0000 C   0  0  0  0  0  0  0  0  0  0  0  0
    2.7406   -7.4256    0.0000 C   0  0  0  0  0  0  0  0  0  0  0  0
    2.5838   -5.9338    0.0000 C   0  0  0  0  0  0  0  0  0  0  0  0
    1.2135   -5.3237    0.0000 C   0  0  0  0  0  0  0  0  0  0  0  0
    0.7500   -3.8971    0.0000 C   0  0  0  0  0  0  0  0  0  0  0  0
    1.5000   -2.5981    0.0000 C   0  0  0  0  0  0  0  0  0  0  0  0
    3.0000   -2.5981    0.0000 O   0  0  0  0  0  0  0  0  0  0  0  0
    0.7500   -1.2990    0.0000 C   0  0  0  0  0  0  0  0  0  0  0  0
    1.5000    0.0000    0.0000 C   0  0  0  0  0  0  0  0  0  0  0  0
    0.7500    1.2990    0.0000 C   0  0  0  0  0  0  0  0  0  0  0  0
   -0.7500    1.2990    0.0000 C   0  0  0  0  0  0  0  0  0  0  0  0
   -1.5000    2.5981    0.0000 O   0  0  0  0  0  0  0  0  0  0  0  0
   -0.7500    3.8971    0.0000 C   0  0  0  0  0  0  0  0  0  0  0  0
   -1.5000    5.1962    0.0000 C   0  0  0  0  0  0  0  0  0  0  0  0
   -3.0000    5.1962    0.0000 O   0  0  0  0  0  0  0  0  0  0  0  0
   -0.7500    6.4952    0.0000 C   0  0  0  0  0  0  0  0  0  0  0  0
   -1.5000    7.7942    0.0000 O   0  0  0  0  0  0  0  0  0  0  0  0
   -1.5000    0.0000    0.0000 C   0  0  0  0  0  0  0  0  0  0  0  0
   -0.7500   -1.2990    0.0000 C   0  0  0  0  0  0  0  0  0  0  0  0
    1.6839   -9.7990    0.0000 C   0  0  0  0  0  0  0  0  0  0  0  0
    1.8407  -11.2908    0.0000 N   0  0  0  0  0  0  0  0  0  0  0  0
  1  2  1  0
  2  3  1  0
  2  4  1  0
  4  5  1  0
  5  6  1  0
  6  7  2  0
  7  8  1  0
  8  9  1  0
  8 10  2  0
  7 11  1  0
 11 12  2  0
 12 13  1  0
 13 14  2  0
 14 15  1  0
 15 16  1  0
 16 17  2  0
 16 18  1  0
 18 19  2  0
 19 20  1  0
 20 21  2  0
 21 22  1  0
 22 23  1  0
 23 24  1  0
 24 25  1  6
 24 26  1  0
 26 27  1  0
 21 28  1  0
 28 29  2  0
 11 30  1  0
 30 31  3  0
 29  2  1  0
 15  4  2  0
 29 18  1  0
 14  6  1  0
M  END
>  <Ki>  (1) 
nan

>  <IC50>  (1) 
 848.84

$$$$
