50498218
     RDKit          2D

 40 44  0  0  0  0  0  0  0  0999 V2000
   -0.8113  -11.2427    0.0000 C   0  0  0  0  0  0  0  0  0  0  0  0
    0.4022  -10.3610    0.0000 C   0  0  0  0  0  0  0  0  0  0  0  0
    1.7725  -10.9711    0.0000 C   0  0  0  0  0  0  0  0  0  0  0  0
    0.2454   -8.8692    0.0000 C   0  0  0  0  0  0  0  0  0  0  0  0
    1.3601   -7.8655    0.0000 C   0  0  0  0  0  0  0  0  0  0  0  0
    0.7500   -6.4952    0.0000 C   0  0  0  0  0  0  0  0  0  0  0  0
    1.5000   -5.1962    0.0000 N   0  0  0  0  0  0  0  0  0  0  0  0
    0.7500   -3.8971    0.0000 C   0  0  0  0  0  0  0  0  0  0  0  0
   -0.7500   -3.8971    0.0000 O   0  0  0  0  0  0  0  0  0  0  0  0
    1.5000   -2.5981    0.0000 N   0  0  0  0  0  0  0  0  0  0  0  0
    0.7500   -1.2990    0.0000 C   0  0  0  0  0  0  0  0  0  0  0  0
    1.5000    0.0000    0.0000 C   0  0  0  0  0  0  0  0  0  0  0  0
    0.7500    1.2990    0.0000 C   0  0  0  0  0  0  0  0  0  0  0  0
   -0.7500    1.2990    0.0000 C   0  0  0  0  0  0  0  0  0  0  0  0
   -1.5000    0.0000    0.0000 C   0  0  0  0  0  0  0  0  0  0  0  0
   -0.7500   -1.2990    0.0000 C   0  0  0  0  0  0  0  0  0  0  0  0
   -1.5000    2.5981    0.0000 C   0  0  0  0  0  0  0  0  0  0  0  0
   -2.9918    2.7549    0.0000 C   0  0  0  0  0  0  0  0  0  0  0  0
   -3.3037    4.2221    0.0000 C   0  0  0  0  0  0  0  0  0  0  0  0
   -4.6740    4.8322    0.0000 N   0  0  0  0  0  0  0  0  0  0  0  0
   -4.8308    6.3240    0.0000 C   0  0  0  0  0  0  0  0  0  0  0  0
   -3.6172    7.2057    0.0000 O   0  0  0  0  0  0  0  0  0  0  0  0
   -6.2011    6.9341    0.0000 C   0  0  0  0  0  0  0  0  0  0  0  0
   -6.3579    8.4259    0.0000 C   0  0  0  0  0  0  0  0  0  0  0  0
   -7.7282    9.0360    0.0000 C   0  0  0  0  0  0  0  0  0  0  0  0
   -8.9417    8.1543    0.0000 C   0  0  0  0  0  0  0  0  0  0  0  0
  -10.3120    8.7644    0.0000 C   0  0  0  0  0  0  0  0  0  0  0  0
  -10.4688   10.2562    0.0000 N   0  0  0  0  0  0  0  0  0  0  0  0
   -9.2553   11.1379    0.0000 C   0  0  0  0  0  0  0  0  0  0  0  0
   -9.4121   12.6296    0.0000 C   0  0  0  0  0  0  0  0  0  0  0  0
  -10.7824   13.2397    0.0000 N   0  0  0  0  0  0  0  0  0  0  0  0
  -10.9392   14.7315    0.0000 C   0  0  0  0  0  0  0  0  0  0  0  0
  -11.9959   12.3581    0.0000 C   0  0  0  0  0  0  0  0  0  0  0  0
  -11.8391   10.8663    0.0000 C   0  0  0  0  0  0  0  0  0  0  0  0
   -8.7849    6.6625    0.0000 C   0  0  0  0  0  0  0  0  0  0  0  0
   -7.4146    6.0524    0.0000 C   0  0  0  0  0  0  0  0  0  0  0  0
   -2.0046    4.9721    0.0000 N   0  0  0  0  0  0  0  0  0  0  0  0
   -0.8899    3.9684    0.0000 N   0  0  0  0  0  0  0  0  0  0  0  0
   -0.7418   -6.6520    0.0000 N   0  0  0  0  0  0  0  0  0  0  0  0
   -1.0537   -8.1192    0.0000 O   0  0  0  0  0  0  0  0  0  0  0  0
  1  2  1  0
  2  3  1  0
  2  4  1  0
  4  5  2  0
  5  6  1  0
  6  7  1  0
  7  8  1  0
  8  9  2  0
  8 10  1  0
 10 11  1  0
 11 12  2  0
 12 13  1  0
 13 14  2  0
 14 15  1  0
 15 16  2  0
 14 17  1  0
 17 18  1  0
 18 19  2  0
 19 20  1  0
 20 21  1  0
 21 22  2  0
 21 23  1  0
 23 24  2  0
 24 25  1  0
 25 26  2  0
 26 27  1  0
 27 28  1  0
 28 29  1  0
 29 30  1  0
 30 31  1  0
 31 32  1  0
 31 33  1  0
 33 34  1  0
 26 35  1  0
 35 36  2  0
 19 37  1  0
 37 38  1  0
  6 39  2  0
 39 40  1  0
 40  4  1  0
 16 11  1  0
 38 17  2  0
 36 23  1  0
 34 28  1  0
M  END
>  <Ki>  (1) 
nan

>  <IC50>  (1) 
 855

$$$$
