51100794
     RDKit          2D

 65 71  0  0  0  0  0  0  0  0999 V2000
    3.7500   -1.2990    0.0000 C   0  0  0  0  0  0  0  0  0  0  0  0
    3.0000    0.0000    0.0000 O   0  0  0  0  0  0  0  0  0  0  0  0
    1.5000    0.0000    0.0000 C   0  0  0  0  0  0  0  0  0  0  0  0
    0.7500   -1.2990    0.0000 C   0  0  0  0  0  0  0  0  0  0  0  0
   -0.7500   -1.2990    0.0000 C   0  0  0  0  0  0  0  0  0  0  0  0
   -1.5000    0.0000    0.0000 C   0  0  0  0  0  0  0  0  0  0  0  0
   -3.0000    0.0000    0.0000 N   0  0  0  0  0  0  0  0  0  0  0  0
   -3.7500    1.2990    0.0000 C   0  0  0  0  0  0  0  0  0  0  0  0
   -3.0000    2.5981    0.0000 N   0  0  0  0  0  0  0  0  0  0  0  0
   -3.7500    3.8971    0.0000 C   0  0  0  0  0  0  0  0  0  0  0  0
   -5.2500    3.8971    0.0000 C   0  0  0  0  0  0  0  0  0  0  0  0
   -6.0000    5.1962    0.0000 Cl  0  0  0  0  0  0  0  0  0  0  0  0
   -6.0000    2.5981    0.0000 C   0  0  0  0  0  0  0  0  0  0  0  0
   -7.5000    2.5981    0.0000 N   0  0  0  0  0  0  0  0  0  0  0  0
   -8.2500    1.2990    0.0000 C   0  0  0  0  0  0  0  0  0  0  0  0
   -7.5000    0.0000    0.0000 C   0  0  0  0  0  0  0  0  0  0  0  0
   -8.2500   -1.2990    0.0000 C   0  0  0  0  0  0  0  0  0  0  0  0
   -9.7500   -1.2990    0.0000 C   0  0  0  0  0  0  0  0  0  0  0  0
  -10.5000   -0.0000    0.0000 C   0  0  0  0  0  0  0  0  0  0  0  0
   -9.7500    1.2990    0.0000 C   0  0  0  0  0  0  0  0  0  0  0  0
  -10.5000    2.5981    0.0000 S   0  0  0  0  0  0  0  0  0  0  0  0
   -9.2010    3.3481    0.0000 O   0  0  0  0  0  0  0  0  0  0  0  0
  -11.7990    1.8481    0.0000 O   0  0  0  0  0  0  0  0  0  0  0  0
  -11.2500    3.8971    0.0000 C   0  0  0  0  0  0  0  0  0  0  0  0
  -12.7500    3.8971    0.0000 C   0  0  0  0  0  0  0  0  0  0  0  0
  -10.5000    5.1962    0.0000 C   0  0  0  0  0  0  0  0  0  0  0  0
   -5.2500    1.2990    0.0000 N   0  0  0  0  0  0  0  0  0  0  0  0
   -0.7500    1.2990    0.0000 C   0  0  0  0  0  0  0  0  0  0  0  0
    0.7500    1.2990    0.0000 C   0  0  0  0  0  0  0  0  0  0  0  0
    1.5000    2.5981    0.0000 N   0  0  0  0  0  0  0  0  0  0  0  0
    3.0000    2.5981    0.0000 C   0  0  0  0  0  0  0  0  0  0  0  0
    3.7500    1.2990    0.0000 O   0  0  0  0  0  0  0  0  0  0  0  0
    3.7500    3.8971    0.0000 C   0  0  0  0  0  0  0  0  0  0  0  0
    5.2500    3.8971    0.0000 N   0  0  0  0  0  0  0  0  0  0  0  0
    6.0000    5.1962    0.0000 C   0  0  0  0  0  0  0  0  0  0  0  0
    5.2500    6.4952    0.0000 O   0  0  0  0  0  0  0  0  0  0  0  0
    7.5000    5.1962    0.0000 C   0  0  0  0  0  0  0  0  0  0  0  0
    8.3817    6.4097    0.0000 N   0  0  0  0  0  0  0  0  0  0  0  0
    9.8083    5.9462    0.0000 O   0  0  0  0  0  0  0  0  0  0  0  0
    9.8083    4.4462    0.0000 C   0  0  0  0  0  0  0  0  0  0  0  0
    8.3817    3.9826    0.0000 C   0  0  0  0  0  0  0  0  0  0  0  0
    7.9182    2.5560    0.0000 C   0  0  0  0  0  0  0  0  0  0  0  0
    6.4509    2.2442    0.0000 C   0  0  0  0  0  0  0  0  0  0  0  0
    5.9874    0.8176    0.0000 C   0  0  0  0  0  0  0  0  0  0  0  0
    6.9911   -0.2971    0.0000 C   0  0  0  0  0  0  0  0  0  0  0  0
    6.5276   -1.7237    0.0000 C   0  0  0  0  0  0  0  0  0  0  0  0
    7.5313   -2.8384    0.0000 N   0  0  0  0  0  0  0  0  0  0  0  0
    7.0677   -4.2650    0.0000 C   0  0  0  0  0  0  0  0  0  0  0  0
    8.0714   -5.3797    0.0000 C   0  0  0  0  0  0  0  0  0  0  0  0
    9.5387   -5.0679    0.0000 O   0  0  0  0  0  0  0  0  0  0  0  0
   10.0022   -3.6413    0.0000 C   0  0  0  0  0  0  0  0  0  0  0  0
    8.9985   -2.5266    0.0000 C   0  0  0  0  0  0  0  0  0  0  0  0
    8.4583    0.0147    0.0000 C   0  0  0  0  0  0  0  0  0  0  0  0
    8.9218    1.4413    0.0000 C   0  0  0  0  0  0  0  0  0  0  0  0
   11.0218    3.5645    0.0000 C   0  0  0  0  0  0  0  0  0  0  0  0
   10.8650    2.0727    0.0000 C   0  0  0  0  0  0  0  0  0  0  0  0
   12.0785    1.1910    0.0000 C   0  0  0  0  0  0  0  0  0  0  0  0
   11.9217   -0.3008    0.0000 C   0  0  0  0  0  0  0  0  0  0  0  0
   13.1353   -1.1824    0.0000 C   0  0  0  0  0  0  0  0  0  0  0  0
   10.5514   -0.9109    0.0000 C   0  0  0  0  0  0  0  0  0  0  0  0
   13.4488    1.8011    0.0000 C   0  0  0  0  0  0  0  0  0  0  0  0
   14.6624    0.9194    0.0000 O   0  0  0  0  0  0  0  0  0  0  0  0
   13.6056    3.2929    0.0000 C   0  0  0  0  0  0  0  0  0  0  0  0
   12.3921    4.1746    0.0000 C   0  0  0  0  0  0  0  0  0  0  0  0
   12.5489    5.6664    0.0000 O   0  0  0  0  0  0  0  0  0  0  0  0
  1  2  1  0
  2  3  1  0
  3  4  2  0
  4  5  1  0
  5  6  2  0
  6  7  1  0
  7  8  1  0
  8  9  2  0
  9 10  1  0
 10 11  2  0
 11 12  1  0
 11 13  1  0
 13 14  1  0
 14 15  1  0
 15 16  2  0
 16 17  1  0
 17 18  2  0
 18 19  1  0
 19 20  2  0
 20 21  1  0
 21 22  2  0
 21 23  2  0
 21 24  1  0
 24 25  1  0
 24 26  1  0
 13 27  2  0
  6 28  1  0
 28 29  2  0
 29 30  1  0
 30 31  1  0
 31 32  2  0
 31 33  1  0
 33 34  1  0
 34 35  1  0
 35 36  2  0
 35 37  1  0
 37 38  2  0
 38 39  1  0
 39 40  1  0
 40 41  2  0
 41 42  1  0
 42 43  2  0
 43 44  1  0
 44 45  2  0
 45 46  1  0
 46 47  1  0
 47 48  1  0
 48 49  1  0
 49 50  1  0
 50 51  1  0
 51 52  1  0
 45 53  1  0
 53 54  2  0
 40 55  1  0
 55 56  2  0
 56 57  1  0
 57 58  1  0
 58 59  1  0
 58 60  1  0
 57 61  2  0
 61 62  1  0
 61 63  1  0
 63 64  2  0
 64 65  1  0
 29  3  1  0
 41 37  1  0
 54 42  1  0
 64 55  1  0
 27  8  1  0
 52 47  1  0
 20 15  1  0
M  END
>  <Ki>  (1) 
nan

>  <IC50>  (1) 
 958

$$$$
