51090336
     RDKit          2D

 30 32  0  0  0  0  0  0  0  0999 V2000
   12.8835    0.1707    0.0000 C   0  0  0  0  0  0  0  0  0  0  0  0
   11.7344   -0.7935    0.0000 C   0  0  0  0  0  0  0  0  0  0  0  0
   11.9949   -2.2707    0.0000 C   0  0  0  0  0  0  0  0  0  0  0  0
   10.3249   -0.2804    0.0000 C   0  0  0  0  0  0  0  0  0  0  0  0
    9.1758   -1.2446    0.0000 C   0  0  0  0  0  0  0  0  0  0  0  0
    7.7663   -0.7316    0.0000 N   0  0  0  0  0  0  0  0  0  0  0  0
    6.6172   -1.6958    0.0000 C   0  0  0  0  0  0  0  0  0  0  0  0
    6.8777   -3.1730    0.0000 C   0  0  0  0  0  0  0  0  0  0  0  0
    5.7286   -4.1372    0.0000 C   0  0  0  0  0  0  0  0  0  0  0  0
    5.9891   -5.6144    0.0000 O   0  0  0  0  0  0  0  0  0  0  0  0
    4.3191   -3.6241    0.0000 C   0  0  0  0  0  0  0  0  0  0  0  0
    3.1700   -4.5883    0.0000 O   0  0  0  0  0  0  0  0  0  0  0  0
    4.0586   -2.1469    0.0000 C   0  0  0  0  0  0  0  0  0  0  0  0
    2.6491   -1.6339    0.0000 C   0  0  0  0  0  0  0  0  0  0  0  0
    1.5000   -2.5981    0.0000 C   0  0  0  0  0  0  0  0  0  0  0  0
    2.6491   -3.5623    0.0000 C   0  0  0  0  0  0  0  0  0  0  0  0
    0.7500   -3.8971    0.0000 C   0  0  0  0  0  0  0  0  0  0  0  0
    1.5000   -5.1962    0.0000 C   0  0  0  0  0  0  0  0  0  0  0  0
   -0.7500   -3.8971    0.0000 C   0  0  0  0  0  0  0  0  0  0  0  0
   -1.5000   -2.5981    0.0000 C   0  0  0  0  0  0  0  0  0  0  0  0
   -0.7500   -1.2990    0.0000 C   0  0  0  0  0  0  0  0  0  0  0  0
   -2.2500   -1.2990    0.0000 C   0  0  0  0  0  0  0  0  0  0  0  0
    0.7500   -1.2990    0.0000 C   0  0  0  0  0  0  0  0  0  0  0  0
    1.5000    0.0000    0.0000 C   0  0  0  0  0  0  0  0  0  0  0  0
    0.7500    1.2990    0.0000 C   0  0  0  0  0  0  0  0  0  0  0  0
   -0.7500    1.2990    0.0000 C   0  0  0  0  0  0  0  0  0  0  0  0
   -1.5000    0.0000    0.0000 C   0  0  0  0  0  0  0  0  0  0  0  0
   -3.0000    0.0000    0.0000 C   0  0  0  0  0  0  0  0  0  0  0  0
    5.2077   -1.1827    0.0000 C   0  0  0  0  0  0  0  0  0  0  0  0
    4.9472    0.2945    0.0000 O   0  0  0  0  0  0  0  0  0  0  0  0
  1  2  1  0
  2  3  1  0
  2  4  1  0
  4  5  1  0
  5  6  2  3
  6  7  1  0
  7  8  2  0
  8  9  1  0
  9 10  1  0
  9 11  2  0
 11 12  1  0
 11 13  1  0
 13 14  1  0
 14 15  1  0
 15 16  1  1
 15 17  1  0
 17 18  1  1
 17 19  1  0
 19 20  1  0
 20 21  1  0
 21 22  1  6
 21 23  1  0
 23 24  1  1
 24 25  1  0
 25 26  1  0
 26 27  2  0
 27 28  1  0
 13 29  2  0
 29 30  1  0
 29  7  1  0
 23 15  1  0
 27 21  1  0
M  END
>  <Ki>  (1) 
nan

>  <IC50>  (1) 
 970

$$$$
