255745
     RDKit          2D

 33 37  0  0  0  0  0  0  0  0999 V2000
   -0.0376   -8.8178    0.0000 Cl  0  0  0  0  0  0  0  0  0  0  0  0
    0.2961   -7.3554    0.0000 C   0  0  0  0  0  0  0  0  0  0  0  0
    1.7295   -6.9133    0.0000 C   0  0  0  0  0  0  0  0  0  0  0  0
    2.0633   -5.4509    0.0000 N   0  0  0  0  0  0  0  0  0  0  0  0
    1.1859   -4.1912    0.0000 C   0  0  0  0  0  0  0  0  0  0  0  0
    1.2980   -2.6953    0.0000 N   0  0  0  0  0  0  0  0  0  0  0  0
    0.7500   -1.2990    0.0000 C   0  0  0  0  0  0  0  0  0  0  0  0
    1.5000    0.0000    0.0000 C   0  0  0  0  0  0  0  0  0  0  0  0
    0.7500    1.2990    0.0000 N   0  0  0  0  0  0  0  0  0  0  0  0
   -0.7500    1.2990    0.0000 C   0  0  0  0  0  0  0  0  0  0  0  0
   -1.5000    0.0000    0.0000 C   0  0  0  0  0  0  0  0  0  0  0  0
   -3.2662   -0.0602    0.0000 C   0  0  0  0  0  0  0  0  0  0  0  0
   -4.5055   -0.9052    0.0000 C   0  0  0  0  0  0  0  0  0  0  0  0
   -5.2555   -2.2042    0.0000 C   0  0  0  0  0  0  0  0  0  0  0  0
   -5.3676   -3.7000    0.0000 C   0  0  0  0  0  0  0  0  0  0  0  0
   -4.8196   -5.0963    0.0000 C   0  0  0  0  0  0  0  0  0  0  0  0
   -3.7200   -6.1166    0.0000 C   0  0  0  0  0  0  0  0  0  0  0  0
   -2.2867   -6.5587    0.0000 N   0  0  0  0  0  0  0  0  0  0  0  0
   -0.8034   -6.3352    0.0000 C   0  0  0  0  0  0  0  0  0  0  0  0
    0.4359   -5.4902    0.0000 N   0  0  0  0  0  0  0  0  0  0  0  0
   -6.3516   -4.9968    0.0000 C   0  0  0  0  0  0  0  0  0  0  0  0
   -7.2868   -3.8241    0.0000 C   0  0  0  0  0  0  0  0  0  0  0  0
   -6.7388   -2.4278    0.0000 C   0  0  0  0  0  0  0  0  0  0  0  0
   -7.6740   -1.2550    0.0000 N   0  0  0  0  0  0  0  0  0  0  0  0
   -9.1573   -1.4786    0.0000 C   0  0  0  0  0  0  0  0  0  0  0  0
   -9.7053   -2.8749    0.0000 O   0  0  0  0  0  0  0  0  0  0  0  0
  -10.0925   -0.3059    0.0000 C   0  0  0  0  0  0  0  0  0  0  0  0
   -9.5445    1.0905    0.0000 C   0  0  0  0  0  0  0  0  0  0  0  0
  -10.4797    2.2632    0.0000 C   0  0  0  0  0  0  0  0  0  0  0  0
  -11.9630    2.0396    0.0000 C   0  0  0  0  0  0  0  0  0  0  0  0
  -12.5110    0.6433    0.0000 C   0  0  0  0  0  0  0  0  0  0  0  0
  -11.5757   -0.5294    0.0000 C   0  0  0  0  0  0  0  0  0  0  0  0
   -0.7500   -1.2990    0.0000 C   0  0  0  0  0  0  0  0  0  0  0  0
  1  2  1  0
  2  3  2  0
  3  4  1  0
  4  5  2  0
  5  6  1  0
  6  7  1  0
  7  8  2  0
  8  9  1  0
  9 10  2  0
 10 11  1  0
 11 12  1  0
 12 13  1  0
 13 14  1  0
 14 15  2  0
 15 16  1  0
 16 17  1  0
 17 18  1  0
 18 19  1  0
 19 20  2  0
 16 21  2  0
 21 22  1  0
 22 23  2  0
 23 24  1  0
 24 25  1  0
 25 26  2  0
 25 27  1  0
 27 28  2  0
 28 29  1  0
 29 30  2  0
 30 31  1  0
 31 32  2  0
 11 33  2  0
 19  2  1  0
 32 27  1  0
 20  5  1  0
 33  7  1  0
 23 14  1  0
M  END
>  <Ki>  (1) 
nan

>  <IC50>  (1) 
>1000

$$$$
