255746
     RDKit          2D

 36 40  0  0  0  0  0  0  0  0999 V2000
   -0.0376   -8.8178    0.0000 Cl  0  0  0  0  0  0  0  0  0  0  0  0
    0.2961   -7.3554    0.0000 C   0  0  0  0  0  0  0  0  0  0  0  0
    1.7295   -6.9133    0.0000 C   0  0  0  0  0  0  0  0  0  0  0  0
    2.0633   -5.4509    0.0000 N   0  0  0  0  0  0  0  0  0  0  0  0
    1.1859   -4.1912    0.0000 C   0  0  0  0  0  0  0  0  0  0  0  0
    1.2980   -2.6953    0.0000 N   0  0  0  0  0  0  0  0  0  0  0  0
    0.7500   -1.2990    0.0000 C   0  0  0  0  0  0  0  0  0  0  0  0
    1.5000    0.0000    0.0000 C   0  0  0  0  0  0  0  0  0  0  0  0
    0.7500    1.2990    0.0000 N   0  0  0  0  0  0  0  0  0  0  0  0
   -0.7500    1.2990    0.0000 C   0  0  0  0  0  0  0  0  0  0  0  0
   -1.5000    0.0000    0.0000 C   0  0  0  0  0  0  0  0  0  0  0  0
   -3.2662   -0.0602    0.0000 C   0  0  0  0  0  0  0  0  0  0  0  0
   -4.5055   -0.9052    0.0000 C   0  0  0  0  0  0  0  0  0  0  0  0
   -5.2555   -2.2042    0.0000 C   0  0  0  0  0  0  0  0  0  0  0  0
   -5.3676   -3.7000    0.0000 C   0  0  0  0  0  0  0  0  0  0  0  0
   -4.8196   -5.0963    0.0000 C   0  0  0  0  0  0  0  0  0  0  0  0
   -3.7200   -6.1166    0.0000 C   0  0  0  0  0  0  0  0  0  0  0  0
   -2.2867   -6.5587    0.0000 N   0  0  0  0  0  0  0  0  0  0  0  0
   -0.8034   -6.3352    0.0000 C   0  0  0  0  0  0  0  0  0  0  0  0
    0.4359   -5.4902    0.0000 N   0  0  0  0  0  0  0  0  0  0  0  0
   -6.3516   -4.9968    0.0000 C   0  0  0  0  0  0  0  0  0  0  0  0
   -7.2868   -3.8241    0.0000 C   0  0  0  0  0  0  0  0  0  0  0  0
   -6.7388   -2.4278    0.0000 C   0  0  0  0  0  0  0  0  0  0  0  0
   -7.6740   -1.2550    0.0000 N   0  0  0  0  0  0  0  0  0  0  0  0
   -9.1573   -1.4786    0.0000 S   0  0  0  0  0  0  0  0  0  0  0  0
   -8.9337   -2.9619    0.0000 O   0  0  0  0  0  0  0  0  0  0  0  0
   -9.3808    0.0046    0.0000 O   0  0  0  0  0  0  0  0  0  0  0  0
  -10.6405   -1.7022    0.0000 C   0  0  0  0  0  0  0  0  0  0  0  0
  -11.5757   -0.5294    0.0000 C   0  0  0  0  0  0  0  0  0  0  0  0
  -13.0590   -0.7530    0.0000 C   0  0  0  0  0  0  0  0  0  0  0  0
  -13.6070   -2.1493    0.0000 C   0  0  0  0  0  0  0  0  0  0  0  0
  -12.6718   -3.3220    0.0000 C   0  0  0  0  0  0  0  0  0  0  0  0
  -11.1885   -3.0985    0.0000 C   0  0  0  0  0  0  0  0  0  0  0  0
  -10.2533   -4.2712    0.0000 C   0  0  0  0  0  0  0  0  0  0  0  0
   -9.3181   -5.4440    0.0000 N   0  0  0  0  0  0  0  0  0  0  0  0
   -0.7500   -1.2990    0.0000 C   0  0  0  0  0  0  0  0  0  0  0  0
  1  2  1  0
  2  3  2  0
  3  4  1  0
  4  5  2  0
  5  6  1  0
  6  7  1  0
  7  8  2  0
  8  9  1  0
  9 10  2  0
 10 11  1  0
 11 12  1  0
 12 13  1  0
 13 14  1  0
 14 15  2  0
 15 16  1  0
 16 17  1  0
 17 18  1  0
 18 19  1  0
 19 20  2  0
 16 21  2  0
 21 22  1  0
 22 23  2  0
 23 24  1  0
 24 25  1  0
 25 26  2  0
 25 27  2  0
 25 28  1  0
 28 29  2  0
 29 30  1  0
 30 31  2  0
 31 32  1  0
 32 33  2  0
 33 34  1  0
 34 35  3  0
 11 36  2  0
 19  2  1  0
 33 28  1  0
 20  5  1  0
 36  7  1  0
 23 14  1  0
M  END
>  <Ki>  (1) 
nan

>  <IC50>  (1) 
>1000

$$$$
