50234952
     RDKit          2D

 37 41  0  0  0  0  0  0  0  0999 V2000
   10.4491   10.8538    0.0000 C   0  0  0  0  0  0  0  0  0  0  0  0
   11.9163   10.5419    0.0000 C   0  0  0  0  0  0  0  0  0  0  0  0
   12.9200   11.6567    0.0000 C   0  0  0  0  0  0  0  0  0  0  0  0
   12.3799    9.1154    0.0000 S   0  0  0  0  0  0  0  0  0  0  0  0
   10.9533    8.6518    0.0000 O   0  0  0  0  0  0  0  0  0  0  0  0
   13.8064    9.5789    0.0000 O   0  0  0  0  0  0  0  0  0  0  0  0
   12.8434    7.6888    0.0000 C   0  0  0  0  0  0  0  0  0  0  0  0
   14.3106    7.3769    0.0000 C   0  0  0  0  0  0  0  0  0  0  0  0
   14.7741    5.9503    0.0000 C   0  0  0  0  0  0  0  0  0  0  0  0
   13.7704    4.8356    0.0000 C   0  0  0  0  0  0  0  0  0  0  0  0
   12.3032    5.1475    0.0000 C   0  0  0  0  0  0  0  0  0  0  0  0
   11.8397    6.5741    0.0000 C   0  0  0  0  0  0  0  0  0  0  0  0
   10.3725    6.8859    0.0000 N   0  0  0  0  0  0  0  0  0  0  0  0
    9.3688    5.7712    0.0000 C   0  0  0  0  0  0  0  0  0  0  0  0
    7.9015    6.0831    0.0000 N   0  0  0  0  0  0  0  0  0  0  0  0
    6.8979    4.9684    0.0000 C   0  0  0  0  0  0  0  0  0  0  0  0
    5.4306    5.2802    0.0000 N   0  0  0  0  0  0  0  0  0  0  0  0
    4.4269    4.1655    0.0000 C   0  0  0  0  0  0  0  0  0  0  0  0
    4.7388    2.6983    0.0000 N   0  0  0  0  0  0  0  0  0  0  0  0
    3.4398    1.9483    0.0000 C   0  0  0  0  0  0  0  0  0  0  0  0
    2.3250    2.9520    0.0000 C   0  0  0  0  0  0  0  0  0  0  0  0
    2.9352    4.3223    0.0000 S   0  0  0  0  0  0  0  0  0  0  0  0
    0.8578    2.6401    0.0000 C   0  0  0  0  0  0  0  0  0  0  0  0
   -0.1459    3.7548    0.0000 O   0  0  0  0  0  0  0  0  0  0  0  0
    0.3943    1.2135    0.0000 N   0  0  0  0  0  0  0  0  0  0  0  0
    1.2760    0.0000    0.0000 C   0  0  0  0  0  0  0  0  0  0  0  0
    0.3943   -1.2135    0.0000 C   0  0  0  0  0  0  0  0  0  0  0  0
    0.3943   -2.7135    0.0000 C   0  0  0  0  0  0  0  0  0  0  0  0
   -1.0323   -3.1771    0.0000 N   0  0  0  0  0  0  0  0  0  0  0  0
   -1.4958   -4.6036    0.0000 C   0  0  0  0  0  0  0  0  0  0  0  0
   -1.9140   -1.9635    0.0000 C   0  0  0  0  0  0  0  0  0  0  0  0
   -1.0323   -0.7500    0.0000 C   0  0  0  0  0  0  0  0  0  0  0  0
   -1.0323    0.7500    0.0000 C   0  0  0  0  0  0  0  0  0  0  0  0
    7.3614    3.5418    0.0000 N   0  0  0  0  0  0  0  0  0  0  0  0
    8.8286    3.2299    0.0000 C   0  0  0  0  0  0  0  0  0  0  0  0
    9.8323    4.3446    0.0000 C   0  0  0  0  0  0  0  0  0  0  0  0
   11.2995    4.0328    0.0000 Cl  0  0  0  0  0  0  0  0  0  0  0  0
  1  2  1  0
  2  3  1  0
  2  4  1  0
  4  5  2  0
  4  6  2  0
  4  7  1  0
  7  8  2  0
  8  9  1  0
  9 10  2  0
 10 11  1  0
 11 12  2  0
 12 13  1  0
 13 14  1  0
 14 15  2  0
 15 16  1  0
 16 17  1  0
 17 18  1  0
 18 19  2  0
 19 20  1  0
 20 21  2  0
 21 22  1  0
 21 23  1  0
 23 24  2  0
 23 25  1  0
 25 26  1  0
 27 26  1  6
 27 28  1  0
 28 29  1  0
 29 30  1  0
 29 31  1  0
 32 31  1  6
 32 33  1  0
 16 34  2  0
 34 35  1  0
 35 36  2  0
 36 37  1  0
 12  7  1  0
 36 14  1  0
 22 18  1  0
 33 25  1  0
 32 27  1  0
M  END
>  <Ki>  (1) 
nan

>  <IC50>  (1) 
>1000

$$$$
