50234955
     RDKit          2D

 37 41  0  0  0  0  0  0  0  0999 V2000
   -8.2149  -11.0189    0.0000 C   0  0  0  0  0  0  0  0  0  0  0  0
   -9.4284  -10.1372    0.0000 C   0  0  0  0  0  0  0  0  0  0  0  0
  -10.7987  -10.7473    0.0000 C   0  0  0  0  0  0  0  0  0  0  0  0
   -9.2716   -8.6454    0.0000 S   0  0  0  0  0  0  0  0  0  0  0  0
   -7.7798   -8.8022    0.0000 O   0  0  0  0  0  0  0  0  0  0  0  0
  -10.7634   -8.4886    0.0000 O   0  0  0  0  0  0  0  0  0  0  0  0
   -9.1148   -7.1536    0.0000 C   0  0  0  0  0  0  0  0  0  0  0  0
  -10.3284   -6.2720    0.0000 C   0  0  0  0  0  0  0  0  0  0  0  0
  -10.1716   -4.7802    0.0000 C   0  0  0  0  0  0  0  0  0  0  0  0
   -8.8013   -4.1701    0.0000 C   0  0  0  0  0  0  0  0  0  0  0  0
   -7.5877   -5.0517    0.0000 C   0  0  0  0  0  0  0  0  0  0  0  0
   -7.7445   -6.5435    0.0000 C   0  0  0  0  0  0  0  0  0  0  0  0
   -6.5310   -7.4252    0.0000 N   0  0  0  0  0  0  0  0  0  0  0  0
   -5.1607   -6.8151    0.0000 C   0  0  0  0  0  0  0  0  0  0  0  0
   -3.9472   -7.6968    0.0000 N   0  0  0  0  0  0  0  0  0  0  0  0
   -2.5768   -7.0867    0.0000 C   0  0  0  0  0  0  0  0  0  0  0  0
   -1.3633   -7.9684    0.0000 N   0  0  0  0  0  0  0  0  0  0  0  0
    0.0070   -7.3582    0.0000 C   0  0  0  0  0  0  0  0  0  0  0  0
    0.3189   -5.8910    0.0000 N   0  0  0  0  0  0  0  0  0  0  0  0
    1.8107   -5.7342    0.0000 C   0  0  0  0  0  0  0  0  0  0  0  0
    2.4208   -7.1045    0.0000 C   0  0  0  0  0  0  0  0  0  0  0  0
    1.3060   -8.1082    0.0000 S   0  0  0  0  0  0  0  0  0  0  0  0
    2.5607   -4.4352    0.0000 C   0  0  0  0  0  0  0  0  0  0  0  0
    4.0607   -4.4352    0.0000 O   0  0  0  0  0  0  0  0  0  0  0  0
    1.8107   -3.1362    0.0000 N   0  0  0  0  0  0  0  0  0  0  0  0
    2.1989   -1.6873    0.0000 C   0  0  0  0  0  0  0  0  0  0  0  0
    0.7500   -1.2990    0.0000 C   0  0  0  0  0  0  0  0  0  0  0  0
    0.3618   -2.7479    0.0000 C   0  0  0  0  0  0  0  0  0  0  0  0
    1.5000    0.0000    0.0000 C   0  0  0  0  0  0  0  0  0  0  0  0
    0.7500    1.2990    0.0000 C   0  0  0  0  0  0  0  0  0  0  0  0
   -0.7500    1.2990    0.0000 N   0  0  0  0  0  0  0  0  0  0  0  0
   -1.5000    0.0000    0.0000 C   0  0  0  0  0  0  0  0  0  0  0  0
   -0.7500   -1.2990    0.0000 C   0  0  0  0  0  0  0  0  0  0  0  0
   -2.4200   -5.5949    0.0000 N   0  0  0  0  0  0  0  0  0  0  0  0
   -3.6336   -4.7132    0.0000 C   0  0  0  0  0  0  0  0  0  0  0  0
   -5.0039   -5.3233    0.0000 C   0  0  0  0  0  0  0  0  0  0  0  0
   -6.2174   -4.4416    0.0000 Cl  0  0  0  0  0  0  0  0  0  0  0  0
  1  2  1  0
  2  3  1  0
  2  4  1  0
  4  5  2  0
  4  6  2  0
  4  7  1  0
  7  8  2  0
  8  9  1  0
  9 10  2  0
 10 11  1  0
 11 12  2  0
 12 13  1  0
 13 14  1  0
 14 15  2  0
 15 16  1  0
 16 17  1  0
 17 18  1  0
 18 19  2  0
 19 20  1  0
 20 21  2  0
 21 22  1  0
 20 23  1  0
 23 24  2  0
 23 25  1  0
 25 26  1  0
 26 27  1  0
 27 28  1  0
 27 29  1  0
 29 30  1  0
 30 31  1  0
 31 32  1  0
 32 33  1  0
 16 34  2  0
 34 35  1  0
 35 36  2  0
 36 37  1  0
 12  7  1  0
 36 14  1  0
 22 18  1  0
 28 25  1  0
 33 27  1  0
M  END
>  <Ki>  (1) 
nan

>  <IC50>  (1) 
>1000

$$$$
