50234960
     RDKit          2D

 41 44  0  0  0  0  0  0  0  0999 V2000
    3.7500   -1.2990    0.0000 C   0  0  0  0  0  0  0  0  0  0  0  0
    3.0000    0.0000    0.0000 O   0  0  0  0  0  0  0  0  0  0  0  0
    1.5000    0.0000    0.0000 C   0  0  0  0  0  0  0  0  0  0  0  0
    0.7500   -1.2990    0.0000 C   0  0  0  0  0  0  0  0  0  0  0  0
   -0.7500   -1.2990    0.0000 C   0  0  0  0  0  0  0  0  0  0  0  0
   -1.5000   -2.5981    0.0000 N   0  0  0  0  0  0  0  0  0  0  0  0
   -3.0000   -2.5981    0.0000 C   0  0  0  0  0  0  0  0  0  0  0  0
   -3.7500   -1.2990    0.0000 O   0  0  0  0  0  0  0  0  0  0  0  0
   -3.7500   -3.8971    0.0000 C   0  0  0  0  0  0  0  0  0  0  0  0
   -3.1399   -5.2674    0.0000 C   0  0  0  0  0  0  0  0  0  0  0  0
   -4.2546   -6.2711    0.0000 S   0  0  0  0  0  0  0  0  0  0  0  0
   -5.5537   -5.5211    0.0000 C   0  0  0  0  0  0  0  0  0  0  0  0
   -6.9240   -6.1312    0.0000 N   0  0  0  0  0  0  0  0  0  0  0  0
   -8.1375   -5.2496    0.0000 C   0  0  0  0  0  0  0  0  0  0  0  0
   -7.9807   -3.7578    0.0000 N   0  0  0  0  0  0  0  0  0  0  0  0
   -9.1942   -2.8761    0.0000 C   0  0  0  0  0  0  0  0  0  0  0  0
  -10.5645   -3.4862    0.0000 C   0  0  0  0  0  0  0  0  0  0  0  0
  -11.7781   -2.6045    0.0000 Cl  0  0  0  0  0  0  0  0  0  0  0  0
  -10.7213   -4.9780    0.0000 C   0  0  0  0  0  0  0  0  0  0  0  0
  -12.0917   -5.5881    0.0000 N   0  0  0  0  0  0  0  0  0  0  0  0
  -12.2484   -7.0799    0.0000 C   0  0  0  0  0  0  0  0  0  0  0  0
  -11.0349   -7.9615    0.0000 C   0  0  0  0  0  0  0  0  0  0  0  0
  -11.1917   -9.4533    0.0000 C   0  0  0  0  0  0  0  0  0  0  0  0
  -12.5620  -10.0634    0.0000 C   0  0  0  0  0  0  0  0  0  0  0  0
  -13.7756   -9.1818    0.0000 C   0  0  0  0  0  0  0  0  0  0  0  0
  -13.6188   -7.6900    0.0000 C   0  0  0  0  0  0  0  0  0  0  0  0
  -14.8323   -6.8083    0.0000 S   0  0  0  0  0  0  0  0  0  0  0  0
  -13.9506   -5.5948    0.0000 O   0  0  0  0  0  0  0  0  0  0  0  0
  -15.7140   -8.0218    0.0000 O   0  0  0  0  0  0  0  0  0  0  0  0
  -16.0458   -5.9266    0.0000 C   0  0  0  0  0  0  0  0  0  0  0  0
  -17.4161   -6.5367    0.0000 C   0  0  0  0  0  0  0  0  0  0  0  0
  -15.8890   -4.4348    0.0000 C   0  0  0  0  0  0  0  0  0  0  0  0
   -9.5078   -5.8597    0.0000 N   0  0  0  0  0  0  0  0  0  0  0  0
   -5.2418   -4.0539    0.0000 N   0  0  0  0  0  0  0  0  0  0  0  0
   -1.5000    0.0000    0.0000 C   0  0  0  0  0  0  0  0  0  0  0  0
   -0.7500    1.2990    0.0000 C   0  0  0  0  0  0  0  0  0  0  0  0
   -1.5000    2.5981    0.0000 O   0  0  0  0  0  0  0  0  0  0  0  0
   -0.7500    3.8971    0.0000 C   0  0  0  0  0  0  0  0  0  0  0  0
    0.7500    1.2990    0.0000 C   0  0  0  0  0  0  0  0  0  0  0  0
    1.5000    2.5981    0.0000 O   0  0  0  0  0  0  0  0  0  0  0  0
    3.0000    2.5981    0.0000 C   0  0  0  0  0  0  0  0  0  0  0  0
  1  2  1  0
  2  3  1  0
  3  4  2  0
  4  5  1  0
  5  6  1  0
  6  7  1  0
  7  8  2  0
  7  9  1  0
  9 10  2  0
 10 11  1  0
 11 12  1  0
 12 13  1  0
 13 14  1  0
 14 15  2  0
 15 16  1  0
 16 17  2  0
 17 18  1  0
 17 19  1  0
 19 20  1  0
 20 21  1  0
 21 22  2  0
 22 23  1  0
 23 24  2  0
 24 25  1  0
 25 26  2  0
 26 27  1  0
 27 28  2  0
 27 29  2  0
 27 30  1  0
 30 31  1  0
 30 32  1  0
 19 33  2  0
 12 34  2  0
  5 35  2  0
 35 36  1  0
 36 37  1  0
 37 38  1  0
 36 39  2  0
 39 40  1  0
 40 41  1  0
 39  3  1  0
 34  9  1  0
 33 14  1  0
 26 21  1  0
M  END
>  <Ki>  (1) 
nan

>  <IC50>  (1) 
>1000

$$$$
