51228451
     RDKit          2D

 33 37  0  0  0  0  0  0  0  0999 V2000
   -2.6401   -3.1891    0.0000 C   0  0  0  0  0  0  0  0  0  0  0  0
   -1.2135   -2.7256    0.0000 C   0  0  0  0  0  0  0  0  0  0  0  0
   -0.0000   -3.6073    0.0000 C   0  0  0  0  0  0  0  0  0  0  0  0
    1.2135   -2.7256    0.0000 O   0  0  0  0  0  0  0  0  0  0  0  0
    0.7500   -1.2990    0.0000 C   0  0  0  0  0  0  0  0  0  0  0  0
    1.5000    0.0000    0.0000 C   0  0  0  0  0  0  0  0  0  0  0  0
    0.7500    1.2990    0.0000 C   0  0  0  0  0  0  0  0  0  0  0  0
   -0.7500    1.2990    0.0000 C   0  0  0  0  0  0  0  0  0  0  0  0
   -1.5000    2.5981    0.0000 C   0  0  0  0  0  0  0  0  0  0  0  0
   -1.5000    0.0000    0.0000 C   0  0  0  0  0  0  0  0  0  0  0  0
   -0.7500   -1.2990    0.0000 C   0  0  0  0  0  0  0  0  0  0  0  0
   -0.0000   -5.1073    0.0000 C   0  0  0  0  0  0  0  0  0  0  0  0
   -1.2135   -5.9890    0.0000 N   0  0  0  0  0  0  0  0  0  0  0  0
   -0.7500   -7.4156    0.0000 N   0  0  0  0  0  0  0  0  0  0  0  0
    0.7500   -7.4156    0.0000 C   0  0  0  0  0  0  0  0  0  0  0  0
    1.2135   -5.9890    0.0000 C   0  0  0  0  0  0  0  0  0  0  0  0
    2.6807   -5.6771    0.0000 C   0  0  0  0  0  0  0  0  0  0  0  0
    3.1443   -4.2505    0.0000 N   0  0  0  0  0  0  0  0  0  0  0  0
    3.6844   -6.7918    0.0000 N   0  0  0  0  0  0  0  0  0  0  0  0
    3.2209   -8.2184    0.0000 N   0  0  0  0  0  0  0  0  0  0  0  0
    1.7537   -8.5303    0.0000 C   0  0  0  0  0  0  0  0  0  0  0  0
    1.2902   -9.9569    0.0000 O   0  0  0  0  0  0  0  0  0  0  0  0
   -2.6401   -5.5255    0.0000 C   0  0  0  0  0  0  0  0  0  0  0  0
   -2.9520   -4.0582    0.0000 C   0  0  0  0  0  0  0  0  0  0  0  0
   -4.3786   -3.5947    0.0000 C   0  0  0  0  0  0  0  0  0  0  0  0
   -5.4933   -4.5984    0.0000 C   0  0  0  0  0  0  0  0  0  0  0  0
   -6.9199   -4.1349    0.0000 N   0  0  0  0  0  0  0  0  0  0  0  0
   -7.2317   -2.6677    0.0000 C   0  0  0  0  0  0  0  0  0  0  0  0
   -6.1170   -1.6640    0.0000 O   0  0  0  0  0  0  0  0  0  0  0  0
   -8.6583   -2.2041    0.0000 C   0  0  0  0  0  0  0  0  0  0  0  0
   -8.9702   -0.7369    0.0000 C   0  0  0  0  0  0  0  0  0  0  0  0
   -5.1814   -6.0656    0.0000 C   0  0  0  0  0  0  0  0  0  0  0  0
   -3.7548   -6.5291    0.0000 C   0  0  0  0  0  0  0  0  0  0  0  0
  1  2  1  0
  2  3  2  0
  3  4  1  0
  4  5  1  0
  5  6  2  0
  6  7  1  0
  7  8  2  0
  8  9  1  0
  8 10  1  0
 10 11  2  0
  3 12  1  0
 12 13  1  0
 13 14  1  0
 14 15  2  0
 15 16  1  0
 16 17  1  0
 17 18  1  0
 17 19  2  0
 19 20  1  0
 20 21  1  0
 21 22  2  0
 13 23  1  0
 23 24  2  0
 24 25  1  0
 25 26  2  0
 26 27  1  0
 27 28  1  0
 28 29  2  0
 28 30  1  0
 30 31  2  0
 26 32  1  0
 32 33  2  0
 11  2  1  0
 16 12  2  0
 33 23  1  0
 11  5  1  0
 21 15  1  0
M  END
>  <Ki>  (1) 
nan

>  <IC50>  (1) 
>1000

$$$$
