51275718
     RDKit          2D

 31 35  0  0  0  0  0  0  0  0999 V2000
   -4.6883    2.2939    0.0000 C   0  0  0  0  0  0  0  0  0  0  0  0
   -3.5736    1.2902    0.0000 O   0  0  0  0  0  0  0  0  0  0  0  0
   -2.1470    1.7537    0.0000 C   0  0  0  0  0  0  0  0  0  0  0  0
   -1.8351    3.2209    0.0000 C   0  0  0  0  0  0  0  0  0  0  0  0
   -0.4086    3.6844    0.0000 C   0  0  0  0  0  0  0  0  0  0  0  0
   -0.0967    5.1517    0.0000 C   0  0  0  0  0  0  0  0  0  0  0  0
    0.7062    2.6807    0.0000 C   0  0  0  0  0  0  0  0  0  0  0  0
    0.3943    1.2135    0.0000 C   0  0  0  0  0  0  0  0  0  0  0  0
    1.2760    0.0000    0.0000 C   0  0  0  0  0  0  0  0  0  0  0  0
    0.3943   -1.2135    0.0000 C   0  0  0  0  0  0  0  0  0  0  0  0
   -1.0323   -0.7500    0.0000 S   0  0  0  0  0  0  0  0  0  0  0  0
   -1.0323    0.7500    0.0000 C   0  0  0  0  0  0  0  0  0  0  0  0
    0.8578   -2.6401    0.0000 C   0  0  0  0  0  0  0  0  0  0  0  0
   -0.0239   -3.8536    0.0000 C   0  0  0  0  0  0  0  0  0  0  0  0
    0.8578   -5.0672    0.0000 N   0  0  0  0  0  0  0  0  0  0  0  0
    0.3943   -6.4937    0.0000 C   0  0  0  0  0  0  0  0  0  0  0  0
    1.2760   -7.7073    0.0000 C   0  0  0  0  0  0  0  0  0  0  0  0
    0.3943   -8.9208    0.0000 C   0  0  0  0  0  0  0  0  0  0  0  0
   -1.0323   -8.4573    0.0000 N   0  0  0  0  0  0  0  0  0  0  0  0
   -1.0323   -6.9573    0.0000 C   0  0  0  0  0  0  0  0  0  0  0  0
   -2.2458   -9.3389    0.0000 C   0  0  0  0  0  0  0  0  0  0  0  0
   -2.0890  -10.8307    0.0000 O   0  0  0  0  0  0  0  0  0  0  0  0
   -3.6161   -8.7288    0.0000 C   0  0  0  0  0  0  0  0  0  0  0  0
   -4.8297   -9.6105    0.0000 C   0  0  0  0  0  0  0  0  0  0  0  0
    2.2844   -4.6036    0.0000 C   0  0  0  0  0  0  0  0  0  0  0  0
    3.5834   -5.3536    0.0000 N   0  0  0  0  0  0  0  0  0  0  0  0
    4.8825   -4.6036    0.0000 C   0  0  0  0  0  0  0  0  0  0  0  0
    4.8825   -3.1036    0.0000 N   0  0  0  0  0  0  0  0  0  0  0  0
    3.5834   -2.3536    0.0000 C   0  0  0  0  0  0  0  0  0  0  0  0
    3.5834   -0.8536    0.0000 N   0  0  0  0  0  0  0  0  0  0  0  0
    2.2844   -3.1036    0.0000 C   0  0  0  0  0  0  0  0  0  0  0  0
  1  2  1  0
  2  3  1  0
  3  4  2  0
  4  5  1  0
  5  6  1  0
  5  7  2  0
  7  8  1  0
  8  9  1  0
  9 10  2  0
 10 11  1  0
 11 12  1  0
 10 13  1  0
 13 14  2  0
 14 15  1  0
 16 15  1  1
 16 17  1  0
 17 18  1  0
 18 19  1  0
 19 20  1  0
 19 21  1  0
 21 22  2  0
 21 23  1  0
 23 24  2  0
 15 25  1  0
 25 26  2  0
 26 27  1  0
 27 28  2  0
 28 29  1  0
 29 30  1  0
 29 31  2  0
 12  3  1  0
 31 13  1  0
 12  8  2  0
 20 16  1  0
 31 25  1  0
M  END
>  <Ki>  (1) 
nan

>  <IC50>  (1) 
>1000

$$$$
