255736
     RDKit          2D

 26 29  0  0  0  0  0  0  0  0999 V2000
    1.3394   -8.9393    0.0000 Cl  0  0  0  0  0  0  0  0  0  0  0  0
    1.3394   -7.4393    0.0000 C   0  0  0  0  0  0  0  0  0  0  0  0
    2.6384   -6.6893    0.0000 C   0  0  0  0  0  0  0  0  0  0  0  0
    2.6384   -5.1893    0.0000 N   0  0  0  0  0  0  0  0  0  0  0  0
    1.5115   -4.1411    0.0000 C   0  0  0  0  0  0  0  0  0  0  0  0
    1.4134   -2.6443    0.0000 N   0  0  0  0  0  0  0  0  0  0  0  0
    0.7500   -1.2990    0.0000 C   0  0  0  0  0  0  0  0  0  0  0  0
    1.5000    0.0000    0.0000 C   0  0  0  0  0  0  0  0  0  0  0  0
    0.7500    1.2990    0.0000 C   0  0  0  0  0  0  0  0  0  0  0  0
   -0.7500    1.2990    0.0000 C   0  0  0  0  0  0  0  0  0  0  0  0
   -1.5000    0.0000    0.0000 C   0  0  0  0  0  0  0  0  0  0  0  0
   -3.2949    0.0740    0.0000 C   0  0  0  0  0  0  0  0  0  0  0  0
   -4.6403   -0.5894    0.0000 C   0  0  0  0  0  0  0  0  0  0  0  0
   -5.6293   -1.7172    0.0000 O   0  0  0  0  0  0  0  0  0  0  0  0
   -6.1114   -3.1376    0.0000 C   0  0  0  0  0  0  0  0  0  0  0  0
   -7.4712   -3.8583    0.0000 C   0  0  0  0  0  0  0  0  0  0  0  0
   -7.8594   -5.3072    0.0000 C   0  0  0  0  0  0  0  0  0  0  0  0
   -6.7988   -6.3679    0.0000 C   0  0  0  0  0  0  0  0  0  0  0  0
   -5.3499   -5.9797    0.0000 C   0  0  0  0  0  0  0  0  0  0  0  0
   -4.2221   -6.9687    0.0000 C   0  0  0  0  0  0  0  0  0  0  0  0
   -2.8017   -7.4508    0.0000 C   0  0  0  0  0  0  0  0  0  0  0  0
   -1.3049   -7.3527    0.0000 N   0  0  0  0  0  0  0  0  0  0  0  0
    0.0404   -6.6893    0.0000 C   0  0  0  0  0  0  0  0  0  0  0  0
    1.0294   -5.5615    0.0000 N   0  0  0  0  0  0  0  0  0  0  0  0
   -6.0133   -4.6343    0.0000 C   0  0  0  0  0  0  0  0  0  0  0  0
   -0.7500   -1.2990    0.0000 C   0  0  0  0  0  0  0  0  0  0  0  0
  1  2  1  0
  2  3  2  0
  3  4  1  0
  4  5  2  0
  5  6  1  0
  6  7  1  0
  7  8  2  0
  8  9  1  0
  9 10  2  0
 10 11  1  0
 11 12  1  0
 12 13  1  0
 13 14  1  0
 14 15  1  0
 15 16  2  0
 16 17  1  0
 17 18  2  0
 18 19  1  0
 19 20  1  0
 20 21  1  0
 21 22  1  0
 22 23  1  0
 23 24  2  0
 19 25  2  0
 11 26  2  0
 23  2  1  0
 24  5  1  0
 26  7  1  0
 25 15  1  0
M  END
>  <Ki>  (1) 
nan

>  <IC50>  (1) 
 1230

$$$$
