494011
     RDKit          2D

 41 44  0  0  0  0  0  0  0  0999 V2000
    7.2990   -2.2500    0.0000 C   0  0  0  0  0  0  0  0  0  0  0  0
    6.0000   -1.5000    0.0000 C   0  0  0  0  0  0  0  0  0  0  0  0
    4.7010   -2.2500    0.0000 C   0  0  0  0  0  0  0  0  0  0  0  0
    6.0000    0.0000    0.0000 Si  0  0  0  0  0  4  0  0  0  0  0  0
    4.5000    0.0000    0.0000 C   0  0  0  0  0  0  0  0  0  0  0  0
    3.0000    0.0000    0.0000 C   0  0  0  0  0  0  0  0  0  0  0  0
    1.5000    0.0000    0.0000 C   0  0  0  0  0  0  0  0  0  0  0  0
    0.7500   -1.2990    0.0000 C   0  0  0  0  0  0  0  0  0  0  0  0
   -0.7500   -1.2990    0.0000 C   0  0  0  0  0  0  0  0  0  0  0  0
   -1.5000    0.0000    0.0000 C   0  0  0  0  0  0  0  0  0  0  0  0
   -0.7500    1.2990    0.0000 C   0  0  0  0  0  0  0  0  0  0  0  0
    0.7500    1.2990    0.0000 C   0  0  0  0  0  0  0  0  0  0  0  0
    1.5000    2.5981    0.0000 C   0  0  0  0  0  0  0  0  0  0  0  0
   -1.5000   -2.5981    0.0000 C   0  0  0  0  0  0  0  0  0  0  0  0
   -0.8899   -3.9684    0.0000 C   0  0  0  0  0  0  0  0  0  0  0  0
   -2.0046   -4.9721    0.0000 S   0  0  0  0  0  0  0  0  0  0  0  0
   -3.3037   -4.2221    0.0000 C   0  0  0  0  0  0  0  0  0  0  0  0
   -4.6740   -4.8322    0.0000 N   0  0  0  0  0  0  0  0  0  0  0  0
   -5.8875   -3.9505    0.0000 C   0  0  0  0  0  0  0  0  0  0  0  0
   -5.7307   -2.4587    0.0000 O   0  0  0  0  0  0  0  0  0  0  0  0
   -7.2578   -4.5606    0.0000 C   0  0  0  0  0  0  0  0  0  0  0  0
   -8.4713   -3.6789    0.0000 C   0  0  0  0  0  0  0  0  0  0  0  0
   -9.8417   -4.2890    0.0000 C   0  0  0  0  0  0  0  0  0  0  0  0
   -9.9984   -5.7808    0.0000 C   0  0  0  0  0  0  0  0  0  0  0  0
  -11.3688   -6.3909    0.0000 C   0  0  0  0  0  0  0  0  0  0  0  0
  -12.5823   -5.5093    0.0000 N   0  0  0  0  0  0  0  0  0  0  0  0
  -12.4255   -4.0175    0.0000 C   0  0  0  0  0  0  0  0  0  0  0  0
  -13.6390   -3.1358    0.0000 C   0  0  0  0  0  0  0  0  0  0  0  0
  -15.0093   -3.7459    0.0000 N   0  0  0  0  0  0  0  0  0  0  0  0
  -16.2229   -2.8642    0.0000 C   0  0  0  0  0  0  0  0  0  0  0  0
  -15.1661   -5.2377    0.0000 C   0  0  0  0  0  0  0  0  0  0  0  0
  -13.9526   -6.1194    0.0000 C   0  0  0  0  0  0  0  0  0  0  0  0
   -8.7849   -6.6625    0.0000 C   0  0  0  0  0  0  0  0  0  0  0  0
   -7.4146   -6.0524    0.0000 C   0  0  0  0  0  0  0  0  0  0  0  0
   -2.9918   -2.7549    0.0000 N   0  0  0  0  0  0  0  0  0  0  0  0
    6.0000    1.5000    0.0000 C   0  0  0  0  0  0  0  0  0  0  0  0
    7.2990    2.2500    0.0000 C   0  0  0  0  0  0  0  0  0  0  0  0
    4.7010    2.2500    0.0000 C   0  0  0  0  0  0  0  0  0  0  0  0
    7.5000    0.0000    0.0000 C   0  0  0  0  0  0  0  0  0  0  0  0
    8.2500    1.2990    0.0000 C   0  0  0  0  0  0  0  0  0  0  0  0
    8.2500   -1.2990    0.0000 C   0  0  0  0  0  0  0  0  0  0  0  0
  1  2  1  0
  2  3  1  0
  2  4  1  0
  4  5  1  0
  5  6  3  0
  6  7  1  0
  7  8  2  0
  8  9  1  0
  9 10  2  0
 10 11  1  0
 11 12  2  0
 12 13  1  0
  9 14  1  0
 14 15  2  0
 15 16  1  0
 16 17  1  0
 17 18  1  0
 18 19  1  0
 19 20  2  0
 19 21  1  0
 21 22  2  0
 22 23  1  0
 23 24  2  0
 24 25  1  0
 25 26  1  0
 26 27  1  0
 27 28  1  0
 28 29  1  0
 29 30  1  0
 29 31  1  0
 31 32  1  0
 24 33  1  0
 33 34  2  0
 17 35  2  0
  4 36  1  0
 36 37  1  0
 36 38  1  0
  4 39  1  0
 39 40  1  0
 39 41  1  0
 12  7  1  0
 35 14  1  0
 34 21  1  0
 32 26  1  0
M  END
>  <Ki>  (1) 
nan

>  <IC50>  (1) 
 1300

$$$$
