325790
     RDKit          2D

 31 34  0  0  0  0  0  0  0  0999 V2000
   -5.1814   -2.6490    0.0000 C   0  0  0  0  0  0  0  0  0  0  0  0
   -3.7548   -2.1855    0.0000 C   0  0  0  0  0  0  0  0  0  0  0  0
   -2.6401   -3.1891    0.0000 C   0  0  0  0  0  0  0  0  0  0  0  0
   -1.2135   -2.7256    0.0000 N   0  0  0  0  0  0  0  0  0  0  0  0
   -0.0000   -3.6073    0.0000 C   0  0  0  0  0  0  0  0  0  0  0  0
    1.2135   -2.7256    0.0000 C   0  0  0  0  0  0  0  0  0  0  0  0
    2.5838   -3.3357    0.0000 C   0  0  0  0  0  0  0  0  0  0  0  0
    3.7974   -2.4540    0.0000 O   0  0  0  0  0  0  0  0  0  0  0  0
    2.7406   -4.8275    0.0000 C   0  0  0  0  0  0  0  0  0  0  0  0
    4.1110   -5.4376    0.0000 C   0  0  0  0  0  0  0  0  0  0  0  0
    4.2677   -6.9294    0.0000 C   0  0  0  0  0  0  0  0  0  0  0  0
    3.0542   -7.8111    0.0000 C   0  0  0  0  0  0  0  0  0  0  0  0
    3.2110   -9.3029    0.0000 O   0  0  0  0  0  0  0  0  0  0  0  0
    1.9975  -10.1845    0.0000 C   0  0  0  0  0  0  0  0  0  0  0  0
    2.1543  -11.6763    0.0000 C   0  0  0  0  0  0  0  0  0  0  0  0
    0.9408  -12.5580    0.0000 N   0  0  0  0  0  0  0  0  0  0  0  0
    1.0975  -14.0498    0.0000 C   0  0  0  0  0  0  0  0  0  0  0  0
   -0.1160  -14.9315    0.0000 C   0  0  0  0  0  0  0  0  0  0  0  0
   -0.4296  -11.9479    0.0000 C   0  0  0  0  0  0  0  0  0  0  0  0
   -1.6431  -12.8296    0.0000 C   0  0  0  0  0  0  0  0  0  0  0  0
    1.6839   -7.2010    0.0000 C   0  0  0  0  0  0  0  0  0  0  0  0
    1.5271   -5.7092    0.0000 C   0  0  0  0  0  0  0  0  0  0  0  0
    0.1568   -5.0991    0.0000 C   0  0  0  0  0  0  0  0  0  0  0  0
   -1.3396   -4.9944    0.0000 C   0  0  0  0  0  0  0  0  0  0  0  0
   -0.2061   -6.5545    0.0000 C   0  0  0  0  0  0  0  0  0  0  0  0
    0.7500   -1.2990    0.0000 C   0  0  0  0  0  0  0  0  0  0  0  0
    1.5000    0.0000    0.0000 C   0  0  0  0  0  0  0  0  0  0  0  0
    0.7500    1.2990    0.0000 C   0  0  0  0  0  0  0  0  0  0  0  0
   -0.7500    1.2990    0.0000 C   0  0  0  0  0  0  0  0  0  0  0  0
   -1.5000    0.0000    0.0000 C   0  0  0  0  0  0  0  0  0  0  0  0
   -0.7500   -1.2990    0.0000 C   0  0  0  0  0  0  0  0  0  0  0  0
  1  2  1  0
  2  3  1  0
  3  4  1  0
  4  5  1  0
  5  6  2  0
  6  7  1  0
  7  8  2  0
  7  9  1  0
  9 10  2  0
 10 11  1  0
 11 12  2  0
 12 13  1  0
 13 14  1  0
 14 15  1  0
 15 16  1  0
 16 17  1  0
 17 18  1  0
 16 19  1  0
 19 20  1  0
 12 21  1  0
 21 22  2  0
 22 23  1  0
 23 24  1  0
 23 25  1  0
  6 26  1  0
 26 27  2  0
 27 28  1  0
 28 29  2  0
 29 30  1  0
 30 31  2  0
 31  4  1  0
 23  5  1  0
 31 26  1  0
 22  9  1  0
M  END
>  <Ki>  (1) 
nan

>  <IC50>  (1) 
 1325.5

$$$$
