51069930
     RDKit          2D

 30 34  0  0  0  0  0  0  0  0999 V2000
    3.7500   -1.2990    0.0000 C   0  0  0  0  0  0  0  0  0  0  0  0
    3.0000    0.0000    0.0000 O   0  0  0  0  0  0  0  0  0  0  0  0
    1.5000    0.0000    0.0000 C   0  0  0  0  0  0  0  0  0  0  0  0
    0.7500   -1.2990    0.0000 C   0  0  0  0  0  0  0  0  0  0  0  0
   -0.7500   -1.2990    0.0000 C   0  0  0  0  0  0  0  0  0  0  0  0
   -1.5000    0.0000    0.0000 C   0  0  0  0  0  0  0  0  0  0  0  0
   -2.9672    0.3119    0.0000 N   0  0  0  0  0  0  0  0  0  0  0  0
   -3.1240    1.8037    0.0000 C   0  0  0  0  0  0  0  0  0  0  0  0
   -4.4231    2.5537    0.0000 O   0  0  0  0  0  0  0  0  0  0  0  0
   -1.7537    2.4138    0.0000 C   0  0  0  0  0  0  0  0  0  0  0  0
   -1.4418    3.8810    0.0000 C   0  0  0  0  0  0  0  0  0  0  0  0
   -2.5565    4.8847    0.0000 C   0  0  0  0  0  0  0  0  0  0  0  0
   -2.3998    6.3765    0.0000 C   0  0  0  0  0  0  0  0  0  0  0  0
   -3.7701    6.9866    0.0000 C   0  0  0  0  0  0  0  0  0  0  0  0
   -4.2336    8.4131    0.0000 C   0  0  0  0  0  0  0  0  0  0  0  0
   -5.7008    8.7250    0.0000 N   0  0  0  0  0  0  0  0  0  0  0  0
   -6.7045    7.6103    0.0000 C   0  0  0  0  0  0  0  0  0  0  0  0
   -6.2410    6.1837    0.0000 C   0  0  0  0  0  0  0  0  0  0  0  0
   -4.7738    5.8718    0.0000 C   0  0  0  0  0  0  0  0  0  0  0  0
   -4.0238    4.5728    0.0000 N   0  0  0  0  0  0  0  0  0  0  0  0
   -6.1643   10.1516    0.0000 C   0  0  0  0  0  0  0  0  0  0  0  0
   -7.6316   10.4635    0.0000 O   0  0  0  0  0  0  0  0  0  0  0  0
   -5.1606   11.2663    0.0000 C   0  0  0  0  0  0  0  0  0  0  0  0
   -5.4725   12.7335    0.0000 C   0  0  0  0  0  0  0  0  0  0  0  0
   -4.1735   13.4835    0.0000 N   0  0  0  0  0  0  0  0  0  0  0  0
   -3.0588   12.4798    0.0000 O   0  0  0  0  0  0  0  0  0  0  0  0
   -3.6689   11.1095    0.0000 C   0  0  0  0  0  0  0  0  0  0  0  0
   -2.9189    9.8105    0.0000 C   0  0  0  0  0  0  0  0  0  0  0  0
   -0.7500    1.2990    0.0000 C   0  0  0  0  0  0  0  0  0  0  0  0
    0.7500    1.2990    0.0000 C   0  0  0  0  0  0  0  0  0  0  0  0
  1  2  1  0
  2  3  1  0
  3  4  2  0
  4  5  1  0
  5  6  2  0
  6  7  1  0
  7  8  1  0
  8  9  2  0
  8 10  1  0
 10 11  2  0
 11 12  1  0
 12 13  2  0
 13 14  1  0
 14 15  1  0
 15 16  1  0
 16 17  1  0
 17 18  1  0
 18 19  1  0
 19 20  1  0
 16 21  1  0
 21 22  2  0
 21 23  1  0
 23 24  1  0
 24 25  2  0
 25 26  1  0
 26 27  1  0
 27 28  1  0
 10 29  1  0
 29 30  2  0
 30  3  1  0
 29  6  1  0
 20 12  1  0
 27 23  2  0
 19 14  2  0
M  END
>  <Ki>  (1) 
nan

>  <IC50>  (1) 
 1400

$$$$
