494121
     RDKit          2D

 44 48  0  0  0  0  0  0  0  0999 V2000
    3.0000    0.0000    0.0000 C   0  0  0  0  0  0  0  0  0  0  0  0
    1.5000    0.0000    0.0000 N   0  0  0  0  0  0  0  0  0  0  0  0
    0.7500   -1.2990    0.0000 C   0  0  0  0  0  0  0  0  0  0  0  0
   -0.7500   -1.2990    0.0000 C   0  0  0  0  0  0  0  0  0  0  0  0
   -1.5000    0.0000    0.0000 N   0  0  0  0  0  0  0  0  0  0  0  0
   -3.0000    0.0000    0.0000 C   0  0  0  0  0  0  0  0  0  0  0  0
   -3.7500    1.2990    0.0000 C   0  0  0  0  0  0  0  0  0  0  0  0
   -3.0000    2.5981    0.0000 C   0  0  0  0  0  0  0  0  0  0  0  0
   -3.7500    3.8971    0.0000 C   0  0  0  0  0  0  0  0  0  0  0  0
   -5.2500    3.8971    0.0000 C   0  0  0  0  0  0  0  0  0  0  0  0
   -6.0000    2.5981    0.0000 C   0  0  0  0  0  0  0  0  0  0  0  0
   -5.2500    1.2990    0.0000 C   0  0  0  0  0  0  0  0  0  0  0  0
   -6.0000    5.1962    0.0000 C   0  0  0  0  0  0  0  0  0  0  0  0
   -7.5000    5.1962    0.0000 O   0  0  0  0  0  0  0  0  0  0  0  0
   -5.2500    6.4952    0.0000 N   0  0  0  0  0  0  0  0  0  0  0  0
   -6.0000    7.7942    0.0000 C   0  0  0  0  0  0  0  0  0  0  0  0
   -7.4918    7.9510    0.0000 N   0  0  0  0  0  0  0  0  0  0  0  0
   -7.8037    9.4182    0.0000 C   0  0  0  0  0  0  0  0  0  0  0  0
   -6.5046   10.1682    0.0000 C   0  0  0  0  0  0  0  0  0  0  0  0
   -5.3899    9.1645    0.0000 S   0  0  0  0  0  0  0  0  0  0  0  0
   -9.1740   10.0283    0.0000 C   0  0  0  0  0  0  0  0  0  0  0  0
   -9.3308   11.5201    0.0000 C   0  0  0  0  0  0  0  0  0  0  0  0
  -10.7011   12.1302    0.0000 C   0  0  0  0  0  0  0  0  0  0  0  0
  -11.9146   11.2486    0.0000 C   0  0  0  0  0  0  0  0  0  0  0  0
  -11.7578    9.7568    0.0000 C   0  0  0  0  0  0  0  0  0  0  0  0
  -10.3875    9.1467    0.0000 C   0  0  0  0  0  0  0  0  0  0  0  0
  -13.2849   11.8587    0.0000 C   0  0  0  0  0  0  0  0  0  0  0  0
  -14.6552   12.4688    0.0000 C   0  0  0  0  0  0  0  0  0  0  0  0
  -16.0256   13.0789    0.0000 C   0  0  0  0  0  0  0  0  0  0  0  0
  -16.1824   14.5707    0.0000 C   0  0  0  0  0  0  0  0  0  0  0  0
  -17.5527   15.1808    0.0000 C   0  0  0  0  0  0  0  0  0  0  0  0
  -18.7662   14.2991    0.0000 C   0  0  0  0  0  0  0  0  0  0  0  0
  -18.6094   12.8073    0.0000 C   0  0  0  0  0  0  0  0  0  0  0  0
  -17.2391   12.1972    0.0000 C   0  0  0  0  0  0  0  0  0  0  0  0
  -19.8229   11.9256    0.0000 C   0  0  0  0  0  0  0  0  0  0  0  0
  -21.0365   11.0439    0.0000 F   0  0  0  0  0  0  0  0  0  0  0  0
  -20.7046   13.1391    0.0000 F   0  0  0  0  0  0  0  0  0  0  0  0
  -18.9413   10.7121    0.0000 F   0  0  0  0  0  0  0  0  0  0  0  0
  -17.7095   16.6725    0.0000 C   0  0  0  0  0  0  0  0  0  0  0  0
  -17.8663   18.1643    0.0000 F   0  0  0  0  0  0  0  0  0  0  0  0
  -16.2177   16.8293    0.0000 F   0  0  0  0  0  0  0  0  0  0  0  0
  -19.2012   16.5158    0.0000 F   0  0  0  0  0  0  0  0  0  0  0  0
   -0.7500    1.2990    0.0000 C   0  0  0  0  0  0  0  0  0  0  0  0
    0.7500    1.2990    0.0000 C   0  0  0  0  0  0  0  0  0  0  0  0
  1  2  1  0
  2  3  1  0
  3  4  1  0
  4  5  1  0
  5  6  1  0
  6  7  1  0
  7  8  2  0
  8  9  1  0
  9 10  2  0
 10 11  1  0
 11 12  2  0
 10 13  1  0
 13 14  2  0
 13 15  1  0
 15 16  1  0
 16 17  2  0
 17 18  1  0
 18 19  2  0
 19 20  1  0
 18 21  1  0
 21 22  2  0
 22 23  1  0
 23 24  2  0
 24 25  1  0
 25 26  2  0
 24 27  1  0
 27 28  3  0
 28 29  1  0
 29 30  2  0
 30 31  1  0
 31 32  2  0
 32 33  1  0
 33 34  2  0
 33 35  1  0
 35 36  1  0
 35 37  1  0
 35 38  1  0
 31 39  1  0
 39 40  1  0
 39 41  1  0
 39 42  1  0
  5 43  1  0
 43 44  1  0
 44  2  1  0
 12  7  1  0
 20 16  1  0
 26 21  1  0
 34 29  1  0
M  END
>  <Ki>  (1) 
nan

>  <IC50>  (1) 
 1900

$$$$
