50405219
     RDKit          2D

 36 39  0  0  0  0  0  0  0  0999 V2000
    3.9786   -1.2990    0.0000 C   0  0  0  0  0  0  0  0  0  0  0  0
    3.2286   -0.0000    0.0000 C   0  0  0  0  0  0  0  0  0  0  0  0
    1.7286    0.0000    0.0000 N   0  0  0  0  0  0  0  0  0  0  0  0
    1.0777    1.3515    0.0000 C   0  0  0  0  0  0  0  0  0  0  0  0
   -0.3846    1.6852    0.0000 C   0  0  0  0  0  0  0  0  0  0  0  0
   -1.5574    0.7500    0.0000 C   0  0  0  0  0  0  0  0  0  0  0  0
   -1.5574   -0.7500    0.0000 C   0  0  0  0  0  0  0  0  0  0  0  0
   -2.9537   -1.2980    0.0000 C   0  0  0  0  0  0  0  0  0  0  0  0
   -3.1773   -2.7813    0.0000 C   0  0  0  0  0  0  0  0  0  0  0  0
   -4.5736   -3.3293    0.0000 O   0  0  0  0  0  0  0  0  0  0  0  0
   -5.7463   -2.3940    0.0000 C   0  0  0  0  0  0  0  0  0  0  0  0
   -2.0045   -3.7165    0.0000 C   0  0  0  0  0  0  0  0  0  0  0  0
   -2.2281   -5.1997    0.0000 N   0  0  0  0  0  0  0  0  0  0  0  0
   -3.6244   -5.7478    0.0000 C   0  0  0  0  0  0  0  0  0  0  0  0
   -4.7971   -4.8125    0.0000 N   0  0  0  0  0  0  0  0  0  0  0  0
   -6.1934   -5.3605    0.0000 C   0  0  0  0  0  0  0  0  0  0  0  0
   -6.4170   -6.8438    0.0000 C   0  0  0  0  0  0  0  0  0  0  0  0
   -7.8133   -7.3918    0.0000 Cl  0  0  0  0  0  0  0  0  0  0  0  0
   -5.2443   -7.7790    0.0000 C   0  0  0  0  0  0  0  0  0  0  0  0
   -5.4678   -9.2623    0.0000 N   0  0  0  0  0  0  0  0  0  0  0  0
   -4.2951  -10.1975    0.0000 C   0  0  0  0  0  0  0  0  0  0  0  0
   -2.8988   -9.6495    0.0000 C   0  0  0  0  0  0  0  0  0  0  0  0
   -1.7260  -10.5847    0.0000 C   0  0  0  0  0  0  0  0  0  0  0  0
   -1.9496  -12.0680    0.0000 C   0  0  0  0  0  0  0  0  0  0  0  0
   -3.3459  -12.6160    0.0000 C   0  0  0  0  0  0  0  0  0  0  0  0
   -4.5186  -11.6807    0.0000 C   0  0  0  0  0  0  0  0  0  0  0  0
   -5.9150  -12.2287    0.0000 S   0  0  0  0  0  0  0  0  0  0  0  0
   -6.4630  -10.8324    0.0000 O   0  0  0  0  0  0  0  0  0  0  0  0
   -5.3669  -13.6251    0.0000 O   0  0  0  0  0  0  0  0  0  0  0  0
   -7.3113  -12.7768    0.0000 C   0  0  0  0  0  0  0  0  0  0  0  0
   -7.5348  -14.2600    0.0000 C   0  0  0  0  0  0  0  0  0  0  0  0
   -8.4840  -11.8415    0.0000 C   0  0  0  0  0  0  0  0  0  0  0  0
   -3.8480   -7.2310    0.0000 N   0  0  0  0  0  0  0  0  0  0  0  0
   -0.6082   -3.1685    0.0000 C   0  0  0  0  0  0  0  0  0  0  0  0
   -0.3846   -1.6852    0.0000 C   0  0  0  0  0  0  0  0  0  0  0  0
    1.0777   -1.3515    0.0000 C   0  0  0  0  0  0  0  0  0  0  0  0
  1  2  1  0
  2  3  1  0
  3  4  1  0
  4  5  1  0
  5  6  1  0
  6  7  1  0
  7  8  2  0
  8  9  1  0
  9 10  1  0
 10 11  1  0
  9 12  2  0
 12 13  1  0
 13 14  1  0
 14 15  2  0
 15 16  1  0
 16 17  2  0
 17 18  1  0
 17 19  1  0
 19 20  1  0
 20 21  1  0
 21 22  2  0
 22 23  1  0
 23 24  2  0
 24 25  1  0
 25 26  2  0
 26 27  1  0
 27 28  2  0
 27 29  2  0
 27 30  1  0
 30 31  1  0
 30 32  1  0
 19 33  2  0
 12 34  1  0
 34 35  2  0
 35 36  1  0
 36  3  1  0
 35  7  1  0
 33 14  1  0
 26 21  1  0
M  END
>  <Ki>  (1) 
nan

>  <IC50>  (1) 
 2000

$$$$
