494081
     RDKit          2D

 48 52  0  0  0  0  0  0  0  0999 V2000
    9.5490   -3.5490    0.0000 C   0  0  0  0  0  0  0  0  0  0  0  0
    8.2500   -2.7990    0.0000 C   0  0  0  0  0  0  0  0  0  0  0  0
    6.9510   -3.5490    0.0000 C   0  0  0  0  0  0  0  0  0  0  0  0
    8.2500   -1.2990    0.0000 Si  0  0  0  0  0  4  0  0  0  0  0  0
    6.7500   -1.2990    0.0000 O   0  0  0  0  0  0  0  0  0  0  0  0
    6.0000    0.0000    0.0000 C   0  0  0  0  0  0  0  0  0  0  0  0
    4.5000    0.0000    0.0000 C   0  0  0  0  0  0  0  0  0  0  0  0
    3.0000    0.0000    0.0000 C   0  0  0  0  0  0  0  0  0  0  0  0
    1.5000    0.0000    0.0000 C   0  0  0  0  0  0  0  0  0  0  0  0
    0.7500   -1.2990    0.0000 C   0  0  0  0  0  0  0  0  0  0  0  0
   -0.7500   -1.2990    0.0000 C   0  0  0  0  0  0  0  0  0  0  0  0
   -1.5000    0.0000    0.0000 C   0  0  0  0  0  0  0  0  0  0  0  0
   -0.7500    1.2990    0.0000 C   0  0  0  0  0  0  0  0  0  0  0  0
    0.7500    1.2990    0.0000 C   0  0  0  0  0  0  0  0  0  0  0  0
   -1.5000    2.5981    0.0000 C   0  0  0  0  0  0  0  0  0  0  0  0
   -2.9918    2.7549    0.0000 C   0  0  0  0  0  0  0  0  0  0  0  0
   -3.3037    4.2221    0.0000 S   0  0  0  0  0  0  0  0  0  0  0  0
   -2.0046    4.9721    0.0000 C   0  0  0  0  0  0  0  0  0  0  0  0
   -1.8478    6.4639    0.0000 N   0  0  0  0  0  0  0  0  0  0  0  0
   -0.4775    7.0740    0.0000 C   0  0  0  0  0  0  0  0  0  0  0  0
    0.7360    6.1923    0.0000 O   0  0  0  0  0  0  0  0  0  0  0  0
   -0.3207    8.5658    0.0000 C   0  0  0  0  0  0  0  0  0  0  0  0
   -1.4354    9.5695    0.0000 C   0  0  0  0  0  0  0  0  0  0  0  0
   -0.8253   10.9398    0.0000 C   0  0  0  0  0  0  0  0  0  0  0  0
    0.6665   10.7830    0.0000 C   0  0  0  0  0  0  0  0  0  0  0  0
    0.9783    9.3158    0.0000 O   0  0  0  0  0  0  0  0  0  0  0  0
    1.6702   11.8977    0.0000 C   0  0  0  0  0  0  0  0  0  0  0  0
    3.1374   11.5858    0.0000 C   0  0  0  0  0  0  0  0  0  0  0  0
    4.1411   12.7005    0.0000 C   0  0  0  0  0  0  0  0  0  0  0  0
    3.6775   14.1271    0.0000 C   0  0  0  0  0  0  0  0  0  0  0  0
    2.2103   14.4390    0.0000 C   0  0  0  0  0  0  0  0  0  0  0  0
    1.2066   13.3243    0.0000 C   0  0  0  0  0  0  0  0  0  0  0  0
    4.6812   15.2419    0.0000 C   0  0  0  0  0  0  0  0  0  0  0  0
    4.2177   16.6684    0.0000 O   0  0  0  0  0  0  0  0  0  0  0  0
    6.1485   14.9300    0.0000 N   0  0  0  0  0  0  0  0  0  0  0  0
    6.6120   13.5034    0.0000 C   0  0  0  0  0  0  0  0  0  0  0  0
    8.0792   13.1915    0.0000 C   0  0  0  0  0  0  0  0  0  0  0  0
    9.0829   14.3062    0.0000 N   0  0  0  0  0  0  0  0  0  0  0  0
   10.5501   13.9944    0.0000 C   0  0  0  0  0  0  0  0  0  0  0  0
    8.6194   15.7328    0.0000 C   0  0  0  0  0  0  0  0  0  0  0  0
    7.1522   16.0447    0.0000 C   0  0  0  0  0  0  0  0  0  0  0  0
   -0.8899    3.9684    0.0000 N   0  0  0  0  0  0  0  0  0  0  0  0
    8.2500    0.2010    0.0000 C   0  0  0  0  0  0  0  0  0  0  0  0
    9.5490    0.9510    0.0000 C   0  0  0  0  0  0  0  0  0  0  0  0
    6.9510    0.9510    0.0000 C   0  0  0  0  0  0  0  0  0  0  0  0
    9.7500   -1.2990    0.0000 C   0  0  0  0  0  0  0  0  0  0  0  0
   10.5000   -0.0000    0.0000 C   0  0  0  0  0  0  0  0  0  0  0  0
   10.5000   -2.5981    0.0000 C   0  0  0  0  0  0  0  0  0  0  0  0
  1  2  1  0
  2  3  1  0
  2  4  1  0
  4  5  1  0
  5  6  1  0
  6  7  1  0
  7  8  3  0
  8  9  1  0
  9 10  2  0
 10 11  1  0
 11 12  2  0
 12 13  1  0
 13 14  2  0
 13 15  1  0
 15 16  2  0
 16 17  1  0
 17 18  1  0
 18 19  1  0
 19 20  1  0
 20 21  2  0
 20 22  1  0
 22 23  2  0
 23 24  1  0
 24 25  2  0
 25 26  1  0
 25 27  1  0
 27 28  2  0
 28 29  1  0
 29 30  2  0
 30 31  1  0
 31 32  2  0
 30 33  1  0
 33 34  2  0
 33 35  1  0
 35 36  1  0
 36 37  1  0
 37 38  1  0
 38 39  1  0
 38 40  1  0
 40 41  1  0
 18 42  2  0
  4 43  1  0
 43 44  1  0
 43 45  1  0
  4 46  1  0
 46 47  1  0
 46 48  1  0
 14  9  1  0
 42 15  1  0
 26 22  1  0
 32 27  1  0
 41 35  1  0
M  END
>  <Ki>  (1) 
nan

>  <IC50>  (1) 
 2127

$$$$
