427385
     RDKit          2D

 43 49  0  0  0  0  0  0  0  0999 V2000
    6.0000  -10.3923    0.0000 C   0  0  0  0  0  0  0  0  0  0  0  0
    5.2500   -9.0933    0.0000 N   0  0  0  0  0  0  0  0  0  0  0  0
    3.7500   -9.0933    0.0000 C   0  0  0  0  0  0  0  0  0  0  0  0
    3.0000   -7.7942    0.0000 C   0  0  0  0  0  0  0  0  0  0  0  0
    3.7500   -6.4952    0.0000 N   0  0  0  0  0  0  0  0  0  0  0  0
    5.2500   -6.4952    0.0000 C   0  0  0  0  0  0  0  0  0  0  0  0
    6.0000   -7.7942    0.0000 C   0  0  0  0  0  0  0  0  0  0  0  0
    3.0000   -5.1962    0.0000 C   0  0  0  0  0  0  0  0  0  0  0  0
    3.7500   -3.8971    0.0000 C   0  0  0  0  0  0  0  0  0  0  0  0
    3.0000   -2.5981    0.0000 C   0  0  0  0  0  0  0  0  0  0  0  0
    1.5000   -2.5981    0.0000 C   0  0  0  0  0  0  0  0  0  0  0  0
    0.7500   -3.8971    0.0000 C   0  0  0  0  0  0  0  0  0  0  0  0
    1.5000   -5.1962    0.0000 C   0  0  0  0  0  0  0  0  0  0  0  0
    0.7500   -1.2990    0.0000 C   0  0  0  0  0  0  0  0  0  0  0  0
    1.5000    0.0000    0.0000 C   0  0  0  0  0  0  0  0  0  0  0  0
    0.7500    1.2990    0.0000 C   0  0  0  0  0  0  0  0  0  0  0  0
   -0.7500    1.2990    0.0000 C   0  0  0  0  0  0  0  0  0  0  0  0
   -1.7537    2.4138    0.0000 N   0  0  0  0  0  0  0  0  0  0  0  0
   -3.1240    1.8037    0.0000 C   0  0  0  0  0  0  0  0  0  0  0  0
   -4.4943    2.4138    0.0000 N   0  0  0  0  0  0  0  0  0  0  0  0
   -5.7079    1.5321    0.0000 C   0  0  0  0  0  0  0  0  0  0  0  0
   -5.5511    0.0403    0.0000 C   0  0  0  0  0  0  0  0  0  0  0  0
   -4.1807   -0.5698    0.0000 C   0  0  0  0  0  0  0  0  0  0  0  0
   -4.0240   -2.0616    0.0000 C   0  0  0  0  0  0  0  0  0  0  0  0
   -5.2375   -2.9433    0.0000 C   0  0  0  0  0  0  0  0  0  0  0  0
   -5.0807   -4.4351    0.0000 C   0  0  0  0  0  0  0  0  0  0  0  0
   -3.7104   -5.0452    0.0000 C   0  0  0  0  0  0  0  0  0  0  0  0
   -3.5536   -6.5369    0.0000 C   0  0  0  0  0  0  0  0  0  0  0  0
   -4.7671   -7.4186    0.0000 C   0  0  0  0  0  0  0  0  0  0  0  0
   -6.1374   -6.8085    0.0000 C   0  0  0  0  0  0  0  0  0  0  0  0
   -7.3509   -7.6902    0.0000 C   0  0  0  0  0  0  0  0  0  0  0  0
   -7.1942   -9.1820    0.0000 C   0  0  0  0  0  0  0  0  0  0  0  0
   -5.8238   -9.7921    0.0000 C   0  0  0  0  0  0  0  0  0  0  0  0
   -4.6103   -8.9104    0.0000 C   0  0  0  0  0  0  0  0  0  0  0  0
   -2.4968   -4.1635    0.0000 C   0  0  0  0  0  0  0  0  0  0  0  0
   -2.6536   -2.6717    0.0000 C   0  0  0  0  0  0  0  0  0  0  0  0
   -1.1265   -4.7736    0.0000 C   0  0  0  0  0  0  0  0  0  0  0  0
    0.2438   -5.3837    0.0000 F   0  0  0  0  0  0  0  0  0  0  0  0
   -1.7366   -6.1439    0.0000 F   0  0  0  0  0  0  0  0  0  0  0  0
   -0.5164   -3.4033    0.0000 F   0  0  0  0  0  0  0  0  0  0  0  0
   -2.9672    0.3119    0.0000 C   0  0  0  0  0  0  0  0  0  0  0  0
   -1.5000    0.0000    0.0000 C   0  0  0  0  0  0  0  0  0  0  0  0
   -0.7500   -1.2990    0.0000 C   0  0  0  0  0  0  0  0  0  0  0  0
  1  2  1  0
  2  3  1  0
  3  4  1  0
  4  5  1  0
  5  6  1  0
  6  7  1  0
  5  8  1  0
  8  9  2  0
  9 10  1  0
 10 11  2  0
 11 12  1  0
 12 13  2  0
 11 14  1  0
 14 15  2  0
 15 16  1  0
 16 17  2  0
 17 18  1  0
 18 19  1  0
 19 20  2  0
 20 21  1  0
 21 22  2  0
 22 23  1  0
 23 24  1  0
 24 25  2  0
 25 26  1  0
 26 27  2  0
 27 28  1  0
 28 29  1  0
 29 30  2  0
 30 31  1  0
 31 32  2  0
 32 33  1  0
 33 34  2  0
 27 35  1  0
 35 36  2  0
 35 37  1  0
 37 38  1  0
 37 39  1  0
 37 40  1  0
 23 41  2  0
 41 42  1  0
 42 43  2  0
  7  2  1  0
 13  8  1  0
 43 14  1  0
 42 17  1  0
 41 19  1  0
 36 24  1  0
 34 29  1  0
M  END
>  <Ki>  (1) 
nan

>  <IC50>  (1) 
 2200

$$$$
