325753
     RDKit          2D

 33 36  0  0  0  0  0  0  0  0999 V2000
   -2.6491   -1.6339    0.0000 C   0  0  0  0  0  0  0  0  0  0  0  0
   -1.5000   -2.5981    0.0000 C   0  0  0  0  0  0  0  0  0  0  0  0
   -2.6491   -3.5623    0.0000 C   0  0  0  0  0  0  0  0  0  0  0  0
   -0.7500   -3.8971    0.0000 C   0  0  0  0  0  0  0  0  0  0  0  0
    0.7500   -3.8971    0.0000 C   0  0  0  0  0  0  0  0  0  0  0  0
    1.5000   -2.5981    0.0000 C   0  0  0  0  0  0  0  0  0  0  0  0
    3.0000   -2.5981    0.0000 O   0  0  0  0  0  0  0  0  0  0  0  0
    0.7500   -1.2990    0.0000 C   0  0  0  0  0  0  0  0  0  0  0  0
    1.5000    0.0000    0.0000 C   0  0  0  0  0  0  0  0  0  0  0  0
    0.7500    1.2990    0.0000 C   0  0  0  0  0  0  0  0  0  0  0  0
   -0.7500    1.2990    0.0000 C   0  0  0  0  0  0  0  0  0  0  0  0
   -1.5000    2.5981    0.0000 O   0  0  0  0  0  0  0  0  0  0  0  0
   -0.7500    3.8971    0.0000 C   0  0  0  0  0  0  0  0  0  0  0  0
   -1.5000    5.1962    0.0000 C   0  0  0  0  0  0  0  0  0  0  0  0
   -3.0000    5.1962    0.0000 O   0  0  0  0  0  0  0  0  0  0  0  0
   -0.7500    6.4952    0.0000 C   0  0  0  0  0  0  0  0  0  0  0  0
    0.7500    6.4952    0.0000 O   0  0  0  0  0  0  0  0  0  0  0  0
   -1.5000    7.7942    0.0000 C   0  0  0  0  0  0  0  0  0  0  0  0
   -0.7500    9.0933    0.0000 O   0  0  0  0  0  0  0  0  0  0  0  0
   -1.5000    0.0000    0.0000 C   0  0  0  0  0  0  0  0  0  0  0  0
   -0.7500   -1.2990    0.0000 C   0  0  0  0  0  0  0  0  0  0  0  0
    1.2135   -5.3237    0.0000 C   0  0  0  0  0  0  0  0  0  0  0  0
    2.5838   -5.9338    0.0000 C   0  0  0  0  0  0  0  0  0  0  0  0
    2.7406   -7.4256    0.0000 C   0  0  0  0  0  0  0  0  0  0  0  0
    1.5271   -8.3073    0.0000 C   0  0  0  0  0  0  0  0  0  0  0  0
    1.6839   -9.7990    0.0000 Br  0  0  0  0  0  0  0  0  0  0  0  0
    0.1568   -7.6972    0.0000 C   0  0  0  0  0  0  0  0  0  0  0  0
    0.0000   -6.2054    0.0000 C   0  0  0  0  0  0  0  0  0  0  0  0
   -1.2135   -5.3237    0.0000 N   0  0  0  0  0  0  0  0  0  0  0  0
   -2.6401   -5.7872    0.0000 C   0  0  0  0  0  0  0  0  0  0  0  0
   -2.9520   -7.2544    0.0000 C   0  0  0  0  0  0  0  0  0  0  0  0
   -4.3786   -7.7180    0.0000 O   0  0  0  0  0  0  0  0  0  0  0  0
   -1.8373   -8.2581    0.0000 O   0  0  0  0  0  0  0  0  0  0  0  0
  1  2  1  0
  2  3  1  0
  2  4  1  0
  4  5  2  0
  5  6  1  0
  6  7  2  0
  6  8  1  0
  8  9  2  0
  9 10  1  0
 10 11  2  0
 11 12  1  0
 12 13  1  0
 13 14  1  0
 14 15  1  1
 14 16  1  0
 16 17  1  1
 16 18  1  0
 18 19  1  0
 11 20  1  0
 20 21  2  0
  5 22  1  0
 22 23  2  0
 23 24  1  0
 24 25  2  0
 25 26  1  0
 25 27  1  0
 27 28  2  0
 28 29  1  0
 29 30  1  0
 30 31  1  0
 31 32  1  0
 31 33  2  0
 21  2  1  0
 28 22  1  0
 29  4  1  0
 21  8  1  0
M  END
>  <Ki>  (1) 
nan

>  <IC50>  (1) 
 2813.5

$$$$
