50948569
     RDKit          2D

 37 41  0  0  0  0  0  0  0  0999 V2000
    7.7286   -2.5981    0.0000 C   0  0  0  0  0  0  0  0  0  0  0  0
    6.2286   -2.5981    0.0000 O   0  0  0  0  0  0  0  0  0  0  0  0
    5.4786   -1.2990    0.0000 C   0  0  0  0  0  0  0  0  0  0  0  0
    3.9786   -1.2990    0.0000 C   0  0  0  0  0  0  0  0  0  0  0  0
    3.2286   -0.0000    0.0000 N   0  0  0  0  0  0  0  0  0  0  0  0
    1.7286    0.0000    0.0000 C   0  0  0  0  0  0  0  0  0  0  0  0
    1.0777    1.3515    0.0000 C   0  0  0  0  0  0  0  0  0  0  0  0
   -0.3846    1.6852    0.0000 C   0  0  0  0  0  0  0  0  0  0  0  0
   -1.5574    0.7500    0.0000 C   0  0  0  0  0  0  0  0  0  0  0  0
   -2.8564    1.5000    0.0000 C   0  0  0  0  0  0  0  0  0  0  0  0
   -4.1555    0.7500    0.0000 C   0  0  0  0  0  0  0  0  0  0  0  0
   -5.4545    1.5000    0.0000 N   0  0  0  0  0  0  0  0  0  0  0  0
   -5.4545    3.0000    0.0000 C   0  0  0  0  0  0  0  0  0  0  0  0
   -4.1555    3.7500    0.0000 N   0  0  0  0  0  0  0  0  0  0  0  0
   -4.1555    5.2500    0.0000 C   0  0  0  0  0  0  0  0  0  0  0  0
   -5.4545    6.0000    0.0000 C   0  0  0  0  0  0  0  0  0  0  0  0
   -5.4545    7.5000    0.0000 Cl  0  0  0  0  0  0  0  0  0  0  0  0
   -6.7535    5.2500    0.0000 C   0  0  0  0  0  0  0  0  0  0  0  0
   -8.0526    6.0000    0.0000 N   0  0  0  0  0  0  0  0  0  0  0  0
   -9.3516    5.2500    0.0000 C   0  0  0  0  0  0  0  0  0  0  0  0
   -9.5084    3.7582    0.0000 C   0  0  0  0  0  0  0  0  0  0  0  0
  -10.2584    5.0573    0.0000 C   0  0  0  0  0  0  0  0  0  0  0  0
  -11.7256    4.7454    0.0000 C   0  0  0  0  0  0  0  0  0  0  0  0
  -11.8824    3.2536    0.0000 C   0  0  0  0  0  0  0  0  0  0  0  0
  -10.5121    2.6435    0.0000 C   0  0  0  0  0  0  0  0  0  0  0  0
  -10.7219    5.8601    0.0000 C   0  0  0  0  0  0  0  0  0  0  0  0
  -11.0338    7.3273    0.0000 C   0  0  0  0  0  0  0  0  0  0  0  0
  -12.4604    7.7909    0.0000 N   0  0  0  0  0  0  0  0  0  0  0  0
   -9.9191    8.3310    0.0000 O   0  0  0  0  0  0  0  0  0  0  0  0
   -6.7535    3.7500    0.0000 N   0  0  0  0  0  0  0  0  0  0  0  0
   -4.1555   -0.7500    0.0000 C   0  0  0  0  0  0  0  0  0  0  0  0
   -5.4545   -1.5000    0.0000 O   0  0  0  0  0  0  0  0  0  0  0  0
   -5.4545   -3.0000    0.0000 C   0  0  0  0  0  0  0  0  0  0  0  0
   -2.8564   -1.5000    0.0000 C   0  0  0  0  0  0  0  0  0  0  0  0
   -1.5574   -0.7500    0.0000 C   0  0  0  0  0  0  0  0  0  0  0  0
   -0.3846   -1.6852    0.0000 C   0  0  0  0  0  0  0  0  0  0  0  0
    1.0777   -1.3515    0.0000 C   0  0  0  0  0  0  0  0  0  0  0  0
  1  2  1  0
  2  3  1  0
  3  4  1  0
  4  5  1  0
  5  6  1  0
  6  7  1  0
  7  8  1  0
  8  9  1  0
  9 10  2  0
 10 11  1  0
 11 12  1  0
 12 13  1  0
 13 14  2  0
 14 15  1  0
 15 16  2  0
 16 17  1  0
 16 18  1  0
 18 19  1  0
 20 19  1  6
 20 21  1  0
 21 22  1  0
 22 23  1  0
 23 24  1  1
 24 25  2  0
 23 26  1  0
 26 27  1  6
 27 28  1  0
 27 29  2  0
 18 30  2  0
 11 31  2  0
 31 32  1  0
 32 33  1  0
 31 34  1  0
 34 35  2  0
 35 36  1  0
 36 37  1  0
 37  6  1  0
 35  9  1  0
 30 13  1  0
 26 20  1  0
 21 25  1  1
M  END
>  <Ki>  (1) 
nan

>  <IC50>  (1) 
 4

$$$$
