325834
     RDKit          2D

 31 34  0  0  0  0  0  0  0  0999 V2000
   -9.3195  -17.7104    0.0000 C   0  0  0  0  0  0  0  0  0  0  0  0
   -9.1627  -16.2186    0.0000 N   0  0  0  0  0  0  0  0  0  0  0  0
  -10.3762  -15.3369    0.0000 C   0  0  0  0  0  0  0  0  0  0  0  0
   -7.7923  -15.6085    0.0000 C   0  0  0  0  0  0  0  0  0  0  0  0
   -7.6356  -14.1167    0.0000 C   0  0  0  0  0  0  0  0  0  0  0  0
   -6.2652  -13.5066    0.0000 C   0  0  0  0  0  0  0  0  0  0  0  0
   -6.1084  -12.0149    0.0000 N   0  0  0  0  0  0  0  0  0  0  0  0
   -4.7381  -11.4047    0.0000 C   0  0  0  0  0  0  0  0  0  0  0  0
   -3.5246  -12.2864    0.0000 O   0  0  0  0  0  0  0  0  0  0  0  0
   -4.5813   -9.9130    0.0000 C   0  0  0  0  0  0  0  0  0  0  0  0
   -3.2110   -9.3029    0.0000 O   0  0  0  0  0  0  0  0  0  0  0  0
   -3.0542   -7.8111    0.0000 C   0  0  0  0  0  0  0  0  0  0  0  0
   -4.2677   -6.9294    0.0000 C   0  0  0  0  0  0  0  0  0  0  0  0
   -4.1110   -5.4376    0.0000 C   0  0  0  0  0  0  0  0  0  0  0  0
   -2.7406   -4.8275    0.0000 C   0  0  0  0  0  0  0  0  0  0  0  0
   -2.5838   -3.3357    0.0000 C   0  0  0  0  0  0  0  0  0  0  0  0
   -3.7974   -2.4540    0.0000 O   0  0  0  0  0  0  0  0  0  0  0  0
   -1.2135   -2.7256    0.0000 C   0  0  0  0  0  0  0  0  0  0  0  0
    0.0000   -3.6073    0.0000 C   0  0  0  0  0  0  0  0  0  0  0  0
    1.2135   -2.7256    0.0000 O   0  0  0  0  0  0  0  0  0  0  0  0
    0.7500   -1.2990    0.0000 C   0  0  0  0  0  0  0  0  0  0  0  0
    1.5000    0.0000    0.0000 C   0  0  0  0  0  0  0  0  0  0  0  0
    0.7500    1.2990    0.0000 C   0  0  0  0  0  0  0  0  0  0  0  0
   -0.7500    1.2990    0.0000 C   0  0  0  0  0  0  0  0  0  0  0  0
   -1.5000    0.0000    0.0000 C   0  0  0  0  0  0  0  0  0  0  0  0
   -0.7500   -1.2990    0.0000 C   0  0  0  0  0  0  0  0  0  0  0  0
   -0.1568   -5.0991    0.0000 C   0  0  0  0  0  0  0  0  0  0  0  0
    0.2061   -6.5545    0.0000 C   0  0  0  0  0  0  0  0  0  0  0  0
    1.3396   -4.9944    0.0000 C   0  0  0  0  0  0  0  0  0  0  0  0
   -1.5271   -5.7092    0.0000 C   0  0  0  0  0  0  0  0  0  0  0  0
   -1.6839   -7.2010    0.0000 C   0  0  0  0  0  0  0  0  0  0  0  0
  1  2  1  0
  2  3  1  0
  2  4  1  0
  4  5  1  0
  5  6  1  0
  6  7  1  0
  7  8  1  0
  8  9  2  0
  8 10  1  0
 10 11  1  0
 11 12  1  0
 12 13  2  0
 13 14  1  0
 14 15  2  0
 15 16  1  0
 16 17  2  0
 16 18  1  0
 18 19  2  0
 19 20  1  0
 20 21  1  0
 21 22  2  0
 22 23  1  0
 23 24  2  0
 24 25  1  0
 25 26  2  0
 19 27  1  0
 27 28  1  0
 27 29  1  0
 27 30  1  0
 30 31  2  0
 31 12  1  0
 30 15  1  0
 26 18  1  0
 26 21  1  0
M  END
>  <Ki>  (1) 
nan

>  <IC50>  (1) 
 3120.3

$$$$
