51090335
     RDKit          2D

 28 31  0  0  0  0  0  0  0  0999 V2000
    4.8400   -6.5786    0.0000 C   0  0  0  0  0  0  0  0  0  0  0  0
    5.9891   -5.6144    0.0000 O   0  0  0  0  0  0  0  0  0  0  0  0
    5.7286   -4.1372    0.0000 C   0  0  0  0  0  0  0  0  0  0  0  0
    6.8777   -3.1730    0.0000 C   0  0  0  0  0  0  0  0  0  0  0  0
    6.6172   -1.6958    0.0000 C   0  0  0  0  0  0  0  0  0  0  0  0
    7.5407   -0.5138    0.0000 N   0  0  0  0  0  0  0  0  0  0  0  0
    6.7019    0.7298    0.0000 C   0  0  0  0  0  0  0  0  0  0  0  0
    7.2149    2.1393    0.0000 C   0  0  0  0  0  0  0  0  0  0  0  0
    5.2600    0.3163    0.0000 O   0  0  0  0  0  0  0  0  0  0  0  0
    5.2077   -1.1827    0.0000 C   0  0  0  0  0  0  0  0  0  0  0  0
    4.0586   -2.1469    0.0000 C   0  0  0  0  0  0  0  0  0  0  0  0
    2.6491   -1.6339    0.0000 C   0  0  0  0  0  0  0  0  0  0  0  0
    1.5000   -2.5981    0.0000 C   0  0  0  0  0  0  0  0  0  0  0  0
    2.6491   -3.5623    0.0000 C   0  0  0  0  0  0  0  0  0  0  0  0
    0.7500   -3.8971    0.0000 C   0  0  0  0  0  0  0  0  0  0  0  0
    1.5000   -5.1962    0.0000 C   0  0  0  0  0  0  0  0  0  0  0  0
   -0.7500   -3.8971    0.0000 C   0  0  0  0  0  0  0  0  0  0  0  0
   -1.5000   -2.5981    0.0000 C   0  0  0  0  0  0  0  0  0  0  0  0
   -0.7500   -1.2990    0.0000 C   0  0  0  0  0  0  0  0  0  0  0  0
   -2.2500   -1.2990    0.0000 C   0  0  0  0  0  0  0  0  0  0  0  0
    0.7500   -1.2990    0.0000 C   0  0  0  0  0  0  0  0  0  0  0  0
    1.5000    0.0000    0.0000 C   0  0  0  0  0  0  0  0  0  0  0  0
    0.7500    1.2990    0.0000 C   0  0  0  0  0  0  0  0  0  0  0  0
   -0.7500    1.2990    0.0000 C   0  0  0  0  0  0  0  0  0  0  0  0
   -1.5000    0.0000    0.0000 C   0  0  0  0  0  0  0  0  0  0  0  0
   -3.0000    0.0000    0.0000 C   0  0  0  0  0  0  0  0  0  0  0  0
    4.3191   -3.6241    0.0000 C   0  0  0  0  0  0  0  0  0  0  0  0
    3.1700   -4.5883    0.0000 O   0  0  0  0  0  0  0  0  0  0  0  0
  1  2  1  0
  2  3  1  0
  3  4  2  0
  4  5  1  0
  5  6  1  0
  6  7  2  0
  7  8  1  0
  7  9  1  0
  9 10  1  0
 10 11  1  0
 11 12  1  0
 12 13  1  0
 13 14  1  1
 13 15  1  0
 15 16  1  1
 15 17  1  0
 17 18  1  0
 18 19  1  0
 19 20  1  6
 19 21  1  0
 21 22  1  1
 22 23  1  0
 23 24  1  0
 24 25  2  0
 25 26  1  0
 11 27  2  0
 27 28  1  0
 27  3  1  0
 10  5  2  0
 21 13  1  0
 25 19  1  0
M  END
>  <Ki>  (1) 
nan

>  <IC50>  (1) 
 3380

$$$$
