325806
     RDKit          2D

 54 58  0  0  0  0  0  0  0  0999 V2000
   -4.5664   11.6399    0.0000 C   0  0  0  0  0  0  0  0  0  0  0  0
   -3.6847   12.8534    0.0000 O   0  0  0  0  0  0  0  0  0  0  0  0
   -2.1929   12.6966    0.0000 C   0  0  0  0  0  0  0  0  0  0  0  0
   -1.5828   11.3263    0.0000 O   0  0  0  0  0  0  0  0  0  0  0  0
   -1.3112   13.9101    0.0000 N   0  0  0  0  0  0  0  0  0  0  0  0
    0.1806   13.7533    0.0000 C   0  0  0  0  0  0  0  0  0  0  0  0
    1.0622   14.9669    0.0000 C   0  0  0  0  0  0  0  0  0  0  0  0
    0.4521   16.3372    0.0000 C   0  0  0  0  0  0  0  0  0  0  0  0
    1.3338   17.5507    0.0000 C   0  0  0  0  0  0  0  0  0  0  0  0
    0.7237   18.9210    0.0000 C   0  0  0  0  0  0  0  0  0  0  0  0
   -0.7681   19.0778    0.0000 C   0  0  0  0  0  0  0  0  0  0  0  0
   -1.6498   17.8643    0.0000 C   0  0  0  0  0  0  0  0  0  0  0  0
   -1.0397   16.4940    0.0000 C   0  0  0  0  0  0  0  0  0  0  0  0
    2.5540   14.8101    0.0000 C   0  0  0  0  0  0  0  0  0  0  0  0
    3.1641   13.4397    0.0000 C   0  0  0  0  0  0  0  0  0  0  0  0
    4.6559   13.2830    0.0000 C   0  0  0  0  0  0  0  0  0  0  0  0
    5.5376   14.4965    0.0000 C   0  0  0  0  0  0  0  0  0  0  0  0
    4.9275   15.8668    0.0000 C   0  0  0  0  0  0  0  0  0  0  0  0
    3.4357   16.0236    0.0000 C   0  0  0  0  0  0  0  0  0  0  0  0
    0.7907   12.3830    0.0000 C   0  0  0  0  0  0  0  0  0  0  0  0
    2.2824   12.2262    0.0000 O   0  0  0  0  0  0  0  0  0  0  0  0
   -0.0910   11.1695    0.0000 N   0  0  0  0  0  0  0  0  0  0  0  0
    0.5191    9.7992    0.0000 C   0  0  0  0  0  0  0  0  0  0  0  0
   -0.3626    8.5856    0.0000 C   0  0  0  0  0  0  0  0  0  0  0  0
    0.1009    7.1591    0.0000 C   0  0  0  0  0  0  0  0  0  0  0  0
   -1.1126    6.2774    0.0000 C   0  0  0  0  0  0  0  0  0  0  0  0
   -2.3261    7.1591    0.0000 C   0  0  0  0  0  0  0  0  0  0  0  0
   -1.8626    8.5856    0.0000 S   0  0  0  0  0  0  0  0  0  0  0  0
   -3.7527    6.6955    0.0000 C   0  0  0  0  0  0  0  0  0  0  0  0
   -4.8674    7.6992    0.0000 C   0  0  0  0  0  0  0  0  0  0  0  0
   -4.5556    9.1664    0.0000 O   0  0  0  0  0  0  0  0  0  0  0  0
   -4.0646    5.2283    0.0000 N   0  0  0  0  0  0  0  0  0  0  0  0
   -5.4912    4.7648    0.0000 C   0  0  0  0  0  0  0  0  0  0  0  0
   -6.6059    5.7685    0.0000 C   0  0  0  0  0  0  0  0  0  0  0  0
   -8.0325    5.3050    0.0000 C   0  0  0  0  0  0  0  0  0  0  0  0
   -8.4960    6.7315    0.0000 C   0  0  0  0  0  0  0  0  0  0  0  0
   -7.5689    3.8784    0.0000 C   0  0  0  0  0  0  0  0  0  0  0  0
   -9.4590    4.8414    0.0000 C   0  0  0  0  0  0  0  0  0  0  0  0
   -2.9499    4.2246    0.0000 S   0  0  0  0  0  0  0  0  0  0  0  0
   -1.9462    5.3393    0.0000 O   0  0  0  0  0  0  0  0  0  0  0  0
   -3.9535    3.1099    0.0000 O   0  0  0  0  0  0  0  0  0  0  0  0
   -1.8351    3.2209    0.0000 C   0  0  0  0  0  0  0  0  0  0  0  0
   -0.4086    3.6844    0.0000 C   0  0  0  0  0  0  0  0  0  0  0  0
    0.7062    2.6807    0.0000 C   0  0  0  0  0  0  0  0  0  0  0  0
    0.3943    1.2135    0.0000 C   0  0  0  0  0  0  0  0  0  0  0  0
    1.2760    0.0000    0.0000 N   0  0  0  0  0  0  0  0  0  0  0  0
    0.3943   -1.2135    0.0000 C   0  0  0  0  0  0  0  0  0  0  0  0
   -1.0323   -0.7500    0.0000 C   0  0  0  0  0  0  0  0  0  0  0  0
   -1.0323    0.7500    0.0000 C   0  0  0  0  0  0  0  0  0  0  0  0
   -2.1470    1.7537    0.0000 C   0  0  0  0  0  0  0  0  0  0  0  0
    2.0109    9.6424    0.0000 C   0  0  0  0  0  0  0  0  0  0  0  0
    3.5027    9.4856    0.0000 F   0  0  0  0  0  0  0  0  0  0  0  0
    2.1677   11.1342    0.0000 F   0  0  0  0  0  0  0  0  0  0  0  0
    1.8541    8.1506    0.0000 F   0  0  0  0  0  0  0  0  0  0  0  0
  1  2  1  0
  2  3  1  0
  3  4  2  0
  3  5  1  0
  6  5  1  1
  6  7  1  0
  7  8  1  0
  8  9  2  0
  9 10  1  0
 10 11  2  0
 11 12  1  0
 12 13  2  0
  7 14  1  0
 14 15  2  0
 15 16  1  0
 16 17  2  0
 17 18  1  0
 18 19  2  0
  6 20  1  0
 20 21  2  0
 20 22  1  0
 23 22  1  1
 23 24  1  0
 24 25  2  0
 25 26  1  0
 26 27  2  0
 27 28  1  0
 27 29  1  0
 29 30  1  6
 30 31  1  0
 29 32  1  0
 32 33  1  0
 33 34  1  0
 34 35  1  0
 35 36  1  0
 35 37  1  0
 35 38  1  0
 32 39  1  0
 39 40  2  0
 39 41  2  0
 39 42  1  0
 42 43  2  0
 43 44  1  0
 44 45  2  0
 45 46  1  0
 46 47  1  0
 47 48  2  0
 48 49  1  0
 49 50  2  0
 23 51  1  0
 51 52  1  0
 51 53  1  0
 51 54  1  0
 13  8  1  0
 19 14  1  0
 28 24  1  0
 50 42  1  0
 49 45  1  0
M  END
>  <Ki>  (1) 
nan

>  <IC50>  (1) 
 4385.5

$$$$
