50154114
     RDKit          2D

 34 39  0  0  0  0  0  0  0  0999 V2000
    3.0000    0.0000    0.0000 Br  0  0  0  0  0  0  0  0  0  0  0  0
    1.5000    0.0000    0.0000 C   0  0  0  0  0  0  0  0  0  0  0  0
    0.7500   -1.2990    0.0000 C   0  0  0  0  0  0  0  0  0  0  0  0
   -0.7500   -1.2990    0.0000 C   0  0  0  0  0  0  0  0  0  0  0  0
   -1.5000    0.0000    0.0000 C   0  0  0  0  0  0  0  0  0  0  0  0
   -2.9672    0.3119    0.0000 N   0  0  0  0  0  0  0  0  0  0  0  0
   -3.1240    1.8037    0.0000 C   0  0  0  0  0  0  0  0  0  0  0  0
   -1.7537    2.4138    0.0000 C   0  0  0  0  0  0  0  0  0  0  0  0
   -1.3763    3.8655    0.0000 C   0  0  0  0  0  0  0  0  0  0  0  0
   -2.2760    5.0657    0.0000 C   0  0  0  0  0  0  0  0  0  0  0  0
   -3.7754    5.1106    0.0000 N   0  0  0  0  0  0  0  0  0  0  0  0
   -4.3855    6.4809    0.0000 C   0  0  0  0  0  0  0  0  0  0  0  0
   -3.5038    7.6944    0.0000 C   0  0  0  0  0  0  0  0  0  0  0  0
   -4.1139    9.0647    0.0000 C   0  0  0  0  0  0  0  0  0  0  0  0
   -3.2322   10.2783    0.0000 C   0  0  0  0  0  0  0  0  0  0  0  0
   -3.8423   11.6486    0.0000 C   0  0  0  0  0  0  0  0  0  0  0  0
   -5.3341   11.8054    0.0000 C   0  0  0  0  0  0  0  0  0  0  0  0
   -6.2158   10.5919    0.0000 C   0  0  0  0  0  0  0  0  0  0  0  0
   -5.6057    9.2215    0.0000 C   0  0  0  0  0  0  0  0  0  0  0  0
   -2.0120    7.5376    0.0000 C   0  0  0  0  0  0  0  0  0  0  0  0
   -1.4019    6.1673    0.0000 C   0  0  0  0  0  0  0  0  0  0  0  0
    0.0899    6.0105    0.0000 C   0  0  0  0  0  0  0  0  0  0  0  0
    0.9715    7.2240    0.0000 C   0  0  0  0  0  0  0  0  0  0  0  0
    0.3614    8.5944    0.0000 C   0  0  0  0  0  0  0  0  0  0  0  0
   -1.1303    8.7512    0.0000 C   0  0  0  0  0  0  0  0  0  0  0  0
   -4.7453    3.9663    0.0000 C   0  0  0  0  0  0  0  0  0  0  0  0
   -6.1648    4.4512    0.0000 N   0  0  0  0  0  0  0  0  0  0  0  0
   -7.2944    3.4642    0.0000 C   0  0  0  0  0  0  0  0  0  0  0  0
   -7.0045    1.9925    0.0000 C   0  0  0  0  0  0  0  0  0  0  0  0
   -5.5850    1.5077    0.0000 C   0  0  0  0  0  0  0  0  0  0  0  0
   -5.2951    0.0360    0.0000 I   0  0  0  0  0  0  0  0  0  0  0  0
   -4.4554    2.4946    0.0000 C   0  0  0  0  0  0  0  0  0  0  0  0
   -0.7500    1.2990    0.0000 C   0  0  0  0  0  0  0  0  0  0  0  0
    0.7500    1.2990    0.0000 C   0  0  0  0  0  0  0  0  0  0  0  0
  1  2  1  0
  2  3  2  0
  3  4  1  0
  4  5  2  0
  5  6  1  0
  6  7  1  0
  7  8  2  0
  8  9  1  0
  9 10  1  0
 10 11  1  0
 11 12  1  0
 12 13  1  0
 13 14  1  0
 14 15  2  0
 15 16  1  0
 16 17  2  0
 17 18  1  0
 18 19  2  0
 13 20  1  0
 20 21  2  0
 21 22  1  0
 22 23  2  0
 23 24  1  0
 24 25  2  0
 11 26  1  0
 26 27  2  0
 27 28  1  0
 28 29  2  0
 29 30  1  0
 30 31  1  0
 30 32  2  0
  8 33  1  0
 33 34  2  0
 34  2  1  0
 33  5  1  0
  7 32  1  0
 19 14  1  0
 25 20  1  0
 32 26  1  0
M  END
>  <Ki>  (1) 
nan

>  <IC50>  (1) 
 5000

$$$$
