50154150
     RDKit          2D

 36 41  0  0  0  0  0  0  0  0999 V2000
    4.0359   -5.0885    0.0000 C   0  0  0  0  0  0  0  0  0  0  0  0
    2.6164   -4.6037    0.0000 O   0  0  0  0  0  0  0  0  0  0  0  0
    1.4868   -5.5906    0.0000 C   0  0  0  0  0  0  0  0  0  0  0  0
    1.7767   -7.0623    0.0000 N   0  0  0  0  0  0  0  0  0  0  0  0
    0.6471   -8.0492    0.0000 C   0  0  0  0  0  0  0  0  0  0  0  0
    0.9369   -9.5210    0.0000 C   0  0  0  0  0  0  0  0  0  0  0  0
   -0.7724   -7.5644    0.0000 C   0  0  0  0  0  0  0  0  0  0  0  0
   -1.0623   -6.0927    0.0000 C   0  0  0  0  0  0  0  0  0  0  0  0
   -2.5382   -5.8249    0.0000 N   0  0  0  0  0  0  0  0  0  0  0  0
   -3.4199   -7.0384    0.0000 C   0  0  0  0  0  0  0  0  0  0  0  0
   -4.9117   -6.8816    0.0000 C   0  0  0  0  0  0  0  0  0  0  0  0
   -5.7933   -8.0951    0.0000 C   0  0  0  0  0  0  0  0  0  0  0  0
   -7.2851   -7.9383    0.0000 C   0  0  0  0  0  0  0  0  0  0  0  0
   -8.1668   -9.1519    0.0000 C   0  0  0  0  0  0  0  0  0  0  0  0
   -7.5567  -10.5222    0.0000 C   0  0  0  0  0  0  0  0  0  0  0  0
   -6.0649  -10.6790    0.0000 C   0  0  0  0  0  0  0  0  0  0  0  0
   -5.1832   -9.4654    0.0000 C   0  0  0  0  0  0  0  0  0  0  0  0
   -3.2490   -4.5040    0.0000 C   0  0  0  0  0  0  0  0  0  0  0  0
   -2.6595   -3.1247    0.0000 C   0  0  0  0  0  0  0  0  0  0  0  0
   -1.2135   -2.7256    0.0000 C   0  0  0  0  0  0  0  0  0  0  0  0
    0.0000   -3.6073    0.0000 C   0  0  0  0  0  0  0  0  0  0  0  0
    1.2135   -2.7256    0.0000 N   0  0  0  0  0  0  0  0  0  0  0  0
    0.7500   -1.2990    0.0000 C   0  0  0  0  0  0  0  0  0  0  0  0
    1.5000    0.0000    0.0000 C   0  0  0  0  0  0  0  0  0  0  0  0
    0.7500    1.2990    0.0000 C   0  0  0  0  0  0  0  0  0  0  0  0
   -0.7500    1.2990    0.0000 C   0  0  0  0  0  0  0  0  0  0  0  0
   -1.5000    0.0000    0.0000 C   0  0  0  0  0  0  0  0  0  0  0  0
   -0.7500   -1.2990    0.0000 C   0  0  0  0  0  0  0  0  0  0  0  0
    1.5000    2.5981    0.0000 N   0  0  0  0  0  0  0  0  0  0  0  0
    3.0000    2.5981    0.0000 C   0  0  0  0  0  0  0  0  0  0  0  0
    3.7500    3.8971    0.0000 C   0  0  0  0  0  0  0  0  0  0  0  0
    3.0000    5.1962    0.0000 N   0  0  0  0  0  0  0  0  0  0  0  0
    3.7500    6.4952    0.0000 C   0  0  0  0  0  0  0  0  0  0  0  0
    1.5000    5.1962    0.0000 C   0  0  0  0  0  0  0  0  0  0  0  0
    0.7500    3.8971    0.0000 C   0  0  0  0  0  0  0  0  0  0  0  0
    0.0673   -5.1058    0.0000 C   0  0  0  0  0  0  0  0  0  0  0  0
  1  2  1  0
  2  3  1  0
  3  4  2  0
  4  5  1  0
  5  6  1  0
  5  7  2  0
  7  8  1  0
  8  9  1  0
  9 10  1  0
 10 11  1  0
 11 12  1  0
 12 13  2  0
 13 14  1  0
 14 15  2  0
 15 16  1  0
 16 17  2  0
  9 18  1  0
 18 19  1  0
 19 20  1  0
 20 21  2  0
 21 22  1  0
 22 23  1  0
 23 24  2  0
 24 25  1  0
 25 26  2  0
 26 27  1  0
 27 28  2  0
 25 29  1  0
 29 30  1  0
 30 31  1  0
 31 32  1  0
 32 33  1  0
 32 34  1  0
 34 35  1  0
 21 36  1  0
 36  3  1  0
 36  8  2  0
 17 12  1  0
 28 20  1  0
 35 29  1  0
 28 23  1  0
M  END
>  <Ki>  (1) 
nan

>  <IC50>  (1) 
 5100

$$$$
