50154126
     RDKit          2D

 29 33  0  0  0  0  0  0  0  0999 V2000
   -8.4384  -11.7357    0.0000 O   0  0  0  0  0  0  0  0  0  0  0  0
   -7.5567  -10.5222    0.0000 C   0  0  0  0  0  0  0  0  0  0  0  0
   -8.1668   -9.1519    0.0000 C   0  0  0  0  0  0  0  0  0  0  0  0
   -7.2851   -7.9383    0.0000 C   0  0  0  0  0  0  0  0  0  0  0  0
   -5.7933   -8.0951    0.0000 C   0  0  0  0  0  0  0  0  0  0  0  0
   -4.9117   -6.8816    0.0000 C   0  0  0  0  0  0  0  0  0  0  0  0
   -3.4199   -7.0384    0.0000 C   0  0  0  0  0  0  0  0  0  0  0  0
   -2.5382   -5.8249    0.0000 N   0  0  0  0  0  0  0  0  0  0  0  0
   -3.2490   -4.5040    0.0000 C   0  0  0  0  0  0  0  0  0  0  0  0
   -2.6595   -3.1247    0.0000 C   0  0  0  0  0  0  0  0  0  0  0  0
   -1.2135   -2.7256    0.0000 C   0  0  0  0  0  0  0  0  0  0  0  0
    0.0000   -3.6073    0.0000 C   0  0  0  0  0  0  0  0  0  0  0  0
    1.2135   -2.7256    0.0000 N   0  0  0  0  0  0  0  0  0  0  0  0
    0.7500   -1.2990    0.0000 C   0  0  0  0  0  0  0  0  0  0  0  0
    1.5000    0.0000    0.0000 C   0  0  0  0  0  0  0  0  0  0  0  0
    0.7500    1.2990    0.0000 C   0  0  0  0  0  0  0  0  0  0  0  0
   -0.7500    1.2990    0.0000 C   0  0  0  0  0  0  0  0  0  0  0  0
   -1.5000    2.5981    0.0000 Br  0  0  0  0  0  0  0  0  0  0  0  0
   -1.5000    0.0000    0.0000 C   0  0  0  0  0  0  0  0  0  0  0  0
   -0.7500   -1.2990    0.0000 C   0  0  0  0  0  0  0  0  0  0  0  0
    0.0673   -5.1058    0.0000 C   0  0  0  0  0  0  0  0  0  0  0  0
    1.4868   -5.5906    0.0000 C   0  0  0  0  0  0  0  0  0  0  0  0
    2.6164   -4.6037    0.0000 Cl  0  0  0  0  0  0  0  0  0  0  0  0
    1.7767   -7.0623    0.0000 N   0  0  0  0  0  0  0  0  0  0  0  0
    0.6471   -8.0492    0.0000 C   0  0  0  0  0  0  0  0  0  0  0  0
   -0.7724   -7.5644    0.0000 C   0  0  0  0  0  0  0  0  0  0  0  0
   -1.0623   -6.0927    0.0000 C   0  0  0  0  0  0  0  0  0  0  0  0
   -5.1832   -9.4654    0.0000 C   0  0  0  0  0  0  0  0  0  0  0  0
   -6.0649  -10.6790    0.0000 C   0  0  0  0  0  0  0  0  0  0  0  0
  1  2  1  0
  2  3  2  0
  3  4  1  0
  4  5  2  0
  5  6  1  0
  6  7  1  0
  7  8  1  0
  8  9  1  0
  9 10  1  0
 10 11  1  0
 11 12  2  0
 12 13  1  0
 13 14  1  0
 14 15  2  0
 15 16  1  0
 16 17  2  0
 17 18  1  0
 17 19  1  0
 19 20  2  0
 12 21  1  0
 21 22  2  0
 22 23  1  0
 22 24  1  0
 24 25  2  0
 25 26  1  0
 26 27  2  0
  5 28  1  0
 28 29  2  0
 29  2  1  0
 27  8  1  0
 20 11  1  0
 27 21  1  0
 20 14  1  0
M  END
>  <Ki>  (1) 
nan

>  <IC50>  (1) 
 7100

$$$$
