50154109
     RDKit          2D

 28 32  0  0  0  0  0  0  0  0999 V2000
   -4.9117   -6.8816    0.0000 C   0  0  0  0  0  0  0  0  0  0  0  0
   -3.4199   -7.0384    0.0000 C   0  0  0  0  0  0  0  0  0  0  0  0
   -2.5382   -5.8249    0.0000 N   0  0  0  0  0  0  0  0  0  0  0  0
   -3.2490   -4.5040    0.0000 C   0  0  0  0  0  0  0  0  0  0  0  0
   -2.6595   -3.1247    0.0000 C   0  0  0  0  0  0  0  0  0  0  0  0
   -1.2135   -2.7256    0.0000 C   0  0  0  0  0  0  0  0  0  0  0  0
    0.0000   -3.6073    0.0000 C   0  0  0  0  0  0  0  0  0  0  0  0
    1.2135   -2.7256    0.0000 N   0  0  0  0  0  0  0  0  0  0  0  0
    0.7500   -1.2990    0.0000 C   0  0  0  0  0  0  0  0  0  0  0  0
    1.5000    0.0000    0.0000 C   0  0  0  0  0  0  0  0  0  0  0  0
    0.7500    1.2990    0.0000 C   0  0  0  0  0  0  0  0  0  0  0  0
   -0.7500    1.2990    0.0000 C   0  0  0  0  0  0  0  0  0  0  0  0
   -1.5000    2.5981    0.0000 Br  0  0  0  0  0  0  0  0  0  0  0  0
   -1.5000    0.0000    0.0000 C   0  0  0  0  0  0  0  0  0  0  0  0
   -0.7500   -1.2990    0.0000 C   0  0  0  0  0  0  0  0  0  0  0  0
    0.0673   -5.1058    0.0000 C   0  0  0  0  0  0  0  0  0  0  0  0
    1.4868   -5.5906    0.0000 C   0  0  0  0  0  0  0  0  0  0  0  0
    2.6164   -4.6037    0.0000 I   0  0  0  0  0  0  0  0  0  0  0  0
    1.7767   -7.0623    0.0000 C   0  0  0  0  0  0  0  0  0  0  0  0
    0.6471   -8.0492    0.0000 C   0  0  0  0  0  0  0  0  0  0  0  0
   -0.7724   -7.5644    0.0000 N   0  0  0  0  0  0  0  0  0  0  0  0
   -1.0623   -6.0927    0.0000 C   0  0  0  0  0  0  0  0  0  0  0  0
   -2.8098   -8.4087    0.0000 C   0  0  0  0  0  0  0  0  0  0  0  0
   -3.6915   -9.6222    0.0000 C   0  0  0  0  0  0  0  0  0  0  0  0
   -3.0814  -10.9926    0.0000 C   0  0  0  0  0  0  0  0  0  0  0  0
   -1.5896  -11.1493    0.0000 C   0  0  0  0  0  0  0  0  0  0  0  0
   -0.7079   -9.9358    0.0000 C   0  0  0  0  0  0  0  0  0  0  0  0
   -1.3180   -8.5655    0.0000 C   0  0  0  0  0  0  0  0  0  0  0  0
  2  1  1  6
  2  3  1  0
  3  4  1  0
  4  5  1  0
  5  6  1  0
  6  7  2  0
  7  8  1  0
  8  9  1  0
  9 10  2  0
 10 11  1  0
 11 12  2  0
 12 13  1  0
 12 14  1  0
 14 15  2  0
  7 16  1  0
 16 17  2  0
 17 18  1  0
 17 19  1  0
 19 20  2  0
 20 21  1  0
 21 22  2  0
  2 23  1  0
 23 24  2  0
 24 25  1  0
 25 26  2  0
 26 27  1  0
 27 28  2  0
 22  3  1  0
 28 23  1  0
 15  6  1  0
 22 16  1  0
 15  9  1  0
M  END
>  <Ki>  (1) 
nan

>  <IC50>  (1) 
 8300

$$$$
