50154122
     RDKit          2D

 31 36  0  0  0  0  0  0  0  0999 V2000
    3.0000    0.0000    0.0000 Cl  0  0  0  0  0  0  0  0  0  0  0  0
    1.5000    0.0000    0.0000 C   0  0  0  0  0  0  0  0  0  0  0  0
    0.7500   -1.2990    0.0000 N   0  0  0  0  0  0  0  0  0  0  0  0
   -0.7500   -1.2990    0.0000 C   0  0  0  0  0  0  0  0  0  0  0  0
   -1.5000    0.0000    0.0000 C   0  0  0  0  0  0  0  0  0  0  0  0
   -0.7500    1.2990    0.0000 C   0  0  0  0  0  0  0  0  0  0  0  0
   -1.6852    2.4718    0.0000 N   0  0  0  0  0  0  0  0  0  0  0  0
   -3.1476    2.1380    0.0000 C   0  0  0  0  0  0  0  0  0  0  0  0
   -4.1679    3.2376    0.0000 C   0  0  0  0  0  0  0  0  0  0  0  0
   -5.6303    2.9038    0.0000 C   0  0  0  0  0  0  0  0  0  0  0  0
   -6.2198    1.5245    0.0000 C   0  0  0  0  0  0  0  0  0  0  0  0
   -7.7138    1.6590    0.0000 N   0  0  0  0  0  0  0  0  0  0  0  0
   -8.0476    3.1214    0.0000 C   0  0  0  0  0  0  0  0  0  0  0  0
   -9.3577    3.8518    0.0000 C   0  0  0  0  0  0  0  0  0  0  0  0
   -9.3801    5.3517    0.0000 C   0  0  0  0  0  0  0  0  0  0  0  0
   -8.0924    6.1210    0.0000 C   0  0  0  0  0  0  0  0  0  0  0  0
   -6.7823    5.3905    0.0000 C   0  0  0  0  0  0  0  0  0  0  0  0
   -6.7599    3.8907    0.0000 C   0  0  0  0  0  0  0  0  0  0  0  0
   -1.3515    3.9342    0.0000 C   0  0  0  0  0  0  0  0  0  0  0  0
   -0.0000    4.5850    0.0000 C   0  0  0  0  0  0  0  0  0  0  0  0
    1.3515    3.9342    0.0000 C   0  0  0  0  0  0  0  0  0  0  0  0
    1.6852    2.4718    0.0000 C   0  0  0  0  0  0  0  0  0  0  0  0
    3.1792    2.3373    0.0000 N   0  0  0  0  0  0  0  0  0  0  0  0
    3.7687    3.7166    0.0000 C   0  0  0  0  0  0  0  0  0  0  0  0
    5.1882    4.2014    0.0000 C   0  0  0  0  0  0  0  0  0  0  0  0
    5.4781    5.6732    0.0000 C   0  0  0  0  0  0  0  0  0  0  0  0
    4.3485    6.6601    0.0000 C   0  0  0  0  0  0  0  0  0  0  0  0
    4.6384    8.1318    0.0000 Br  0  0  0  0  0  0  0  0  0  0  0  0
    2.9290    6.1752    0.0000 C   0  0  0  0  0  0  0  0  0  0  0  0
    2.6391    4.7035    0.0000 C   0  0  0  0  0  0  0  0  0  0  0  0
    0.7500    1.2990    0.0000 C   0  0  0  0  0  0  0  0  0  0  0  0
  1  2  1  0
  2  3  2  0
  3  4  1  0
  4  5  2  0
  5  6  1  0
  6  7  1  0
  7  8  1  0
  8  9  1  0
  9 10  1  0
 10 11  2  0
 11 12  1  0
 12 13  1  0
 13 14  2  0
 14 15  1  0
 15 16  2  0
 16 17  1  0
 17 18  2  0
  7 19  1  0
 19 20  1  0
 20 21  1  0
 21 22  2  0
 22 23  1  0
 23 24  1  0
 24 25  2  0
 25 26  1  0
 26 27  2  0
 27 28  1  0
 27 29  1  0
 29 30  2  0
 22 31  1  0
 31  2  1  0
 31  6  2  0
 18 10  1  0
 30 21  1  0
 18 13  1  0
 30 24  1  0
M  END
>  <Ki>  (1) 
nan

>  <IC50>  (1) 
 9300

$$$$
