355492
     RDKit          2D

 33 37  0  0  0  0  0  0  0  0999 V2000
    5.7685  -12.5662    0.0000 C   0  0  0  0  0  0  0  0  0  0  0  0
    6.3786  -11.1959    0.0000 C   0  0  0  0  0  0  0  0  0  0  0  0
    5.4969   -9.9824    0.0000 O   0  0  0  0  0  0  0  0  0  0  0  0
    4.0051  -10.1392    0.0000 C   0  0  0  0  0  0  0  0  0  0  0  0
    3.1235   -8.9257    0.0000 C   0  0  0  0  0  0  0  0  0  0  0  0
    1.6317   -9.0824    0.0000 C   0  0  0  0  0  0  0  0  0  0  0  0
    1.0216  -10.4528    0.0000 C   0  0  0  0  0  0  0  0  0  0  0  0
    1.9033  -11.6663    0.0000 N   0  0  0  0  0  0  0  0  0  0  0  0
    3.3950  -11.5095    0.0000 C   0  0  0  0  0  0  0  0  0  0  0  0
    4.2767  -12.7230    0.0000 N   0  0  0  0  0  0  0  0  0  0  0  0
    0.7500   -7.8689    0.0000 C   0  0  0  0  0  0  0  0  0  0  0  0
   -0.7500   -7.8689    0.0000 C   0  0  0  0  0  0  0  0  0  0  0  0
   -1.2135   -6.4423    0.0000 N   0  0  0  0  0  0  0  0  0  0  0  0
   -0.0000   -5.5607    0.0000 N   0  0  0  0  0  0  0  0  0  0  0  0
    1.2135   -6.4423    0.0000 C   0  0  0  0  0  0  0  0  0  0  0  0
   -0.0000   -4.0607    0.0000 C   0  0  0  0  0  0  0  0  0  0  0  0
    1.2990   -3.3107    0.0000 C   0  0  0  0  0  0  0  0  0  0  0  0
    1.2990   -1.8107    0.0000 C   0  0  0  0  0  0  0  0  0  0  0  0
   -0.0000   -1.0607    0.0000 C   0  0  0  0  0  0  0  0  0  0  0  0
    1.0607    0.0000    0.0000 C   0  0  0  0  0  0  0  0  0  0  0  0
    0.0000    1.0607    0.0000 N   0  0  0  0  0  0  0  0  0  0  0  0
   -1.0607    0.0000    0.0000 C   0  0  0  0  0  0  0  0  0  0  0  0
   -1.2990   -1.8107    0.0000 C   0  0  0  0  0  0  0  0  0  0  0  0
   -1.2990   -3.3107    0.0000 C   0  0  0  0  0  0  0  0  0  0  0  0
    7.8704  -11.0391    0.0000 C   0  0  0  0  0  0  0  0  0  0  0  0
    8.4805   -9.6688    0.0000 C   0  0  0  0  0  0  0  0  0  0  0  0
    7.5988   -8.4553    0.0000 Cl  0  0  0  0  0  0  0  0  0  0  0  0
    9.9723   -9.5120    0.0000 C   0  0  0  0  0  0  0  0  0  0  0  0
   10.8539  -10.7255    0.0000 C   0  0  0  0  0  0  0  0  0  0  0  0
   10.2438  -12.0959    0.0000 C   0  0  0  0  0  0  0  0  0  0  0  0
   11.1255  -13.3094    0.0000 F   0  0  0  0  0  0  0  0  0  0  0  0
    8.7521  -12.2526    0.0000 C   0  0  0  0  0  0  0  0  0  0  0  0
    8.1420  -13.6230    0.0000 Cl  0  0  0  0  0  0  0  0  0  0  0  0
  2  1  1  1
  2  3  1  0
  3  4  1  0
  4  5  2  0
  5  6  1  0
  6  7  2  0
  7  8  1  0
  8  9  2  0
  9 10  1  0
  6 11  1  0
 11 12  1  0
 12 13  2  0
 13 14  1  0
 14 15  1  0
 14 16  1  0
 16 17  1  0
 17 18  1  0
 18 19  1  0
 19 20  1  0
 20 21  1  0
 21 22  1  0
 19 23  1  0
 23 24  1  0
  2 25  1  0
 25 26  2  0
 26 27  1  0
 26 28  1  0
 28 29  2  0
 29 30  1  0
 30 31  1  0
 30 32  2  0
 32 33  1  0
  9  4  1  0
 15 11  2  0
 24 16  1  0
 32 25  1  0
 22 19  1  0
M  END
>  <Ki>  (1) 
nan

>  <IC50>  (1) 
 4.31

$$$$
