50715458
     RDKit          2D

 23 26  0  0  0  0  0  0  0  0999 V2000
   -0.5826   -8.7664    0.0000 Cl  0  0  0  0  0  0  0  0  0  0  0  0
   -0.0507   -7.3639    0.0000 C   0  0  0  0  0  0  0  0  0  0  0  0
    1.4299   -7.1233    0.0000 C   0  0  0  0  0  0  0  0  0  0  0  0
    1.9618   -5.7208    0.0000 N   0  0  0  0  0  0  0  0  0  0  0  0
    1.2570   -4.3598    0.0000 C   0  0  0  0  0  0  0  0  0  0  0  0
    1.4976   -2.8792    0.0000 N   0  0  0  0  0  0  0  0  0  0  0  0
    0.7500   -1.2990    0.0000 C   0  0  0  0  0  0  0  0  0  0  0  0
    1.5000    0.0000    0.0000 C   0  0  0  0  0  0  0  0  0  0  0  0
    0.7500    1.2990    0.0000 C   0  0  0  0  0  0  0  0  0  0  0  0
   -0.7500    1.2990    0.0000 C   0  0  0  0  0  0  0  0  0  0  0  0
   -1.5000    0.0000    0.0000 C   0  0  0  0  0  0  0  0  0  0  0  0
   -2.9697   -0.3000    0.0000 C   0  0  0  0  0  0  0  0  0  0  0  0
   -4.1316   -1.2487    0.0000 C   0  0  0  0  0  0  0  0  0  0  0  0
   -4.7195   -2.6287    0.0000 C   0  0  0  0  0  0  0  0  0  0  0  0
   -6.0427   -3.4022    0.0000 C   0  0  0  0  0  0  0  0  0  0  0  0
   -6.3427   -4.8719    0.0000 C   0  0  0  0  0  0  0  0  0  0  0  0
   -5.2199   -5.8666    0.0000 C   0  0  0  0  0  0  0  0  0  0  0  0
   -3.7971   -5.3916    0.0000 C   0  0  0  0  0  0  0  0  0  0  0  0
   -2.4981   -6.1416    0.0000 N   0  0  0  0  0  0  0  0  0  0  0  0
   -0.9993   -6.2020    0.0000 C   0  0  0  0  0  0  0  0  0  0  0  0
    0.3559   -5.5590    0.0000 N   0  0  0  0  0  0  0  0  0  0  0  0
   -4.5988   -4.1238    0.0000 C   0  0  0  0  0  0  0  0  0  0  0  0
   -0.7500   -1.2990    0.0000 C   0  0  0  0  0  0  0  0  0  0  0  0
  1  2  1  0
  2  3  2  0
  3  4  1  0
  4  5  2  0
  5  6  1  0
  6  7  1  0
  7  8  1  0
  8  9  2  0
  9 10  1  0
 10 11  2  0
 11 12  1  0
 12 13  1  0
 13 14  1  0
 14 15  1  0
 15 16  2  0
 16 17  1  0
 17 18  2  0
 18 19  1  0
 19 20  1  0
 20 21  2  0
 18 22  1  0
 11 23  1  0
 20  2  1  0
 21  5  1  0
 23  7  2  0
 22 14  2  0
M  END
>  <Ki>  (1) 
nan

>  <IC50>  (1) 
>10000

$$$$
