50715459
     RDKit          2D

 29 33  0  0  0  0  0  0  0  0999 V2000
   -6.1441    0.3944    0.0000 Cl  0  0  0  0  0  0  0  0  0  0  0  0
   -5.6122   -1.0081    0.0000 C   0  0  0  0  0  0  0  0  0  0  0  0
   -6.5608   -2.1700    0.0000 C   0  0  0  0  0  0  0  0  0  0  0  0
   -6.0289   -3.5725    0.0000 N   0  0  0  0  0  0  0  0  0  0  0  0
   -4.5988   -4.1238    0.0000 C   0  0  0  0  0  0  0  0  0  0  0  0
   -3.7971   -5.3916    0.0000 N   0  0  0  0  0  0  0  0  0  0  0  0
   -2.4981   -6.1416    0.0000 C   0  0  0  0  0  0  0  0  0  0  0  0
   -1.8897   -7.5483    0.0000 C   0  0  0  0  0  0  0  0  0  0  0  0
   -0.4669   -8.0233    0.0000 C   0  0  0  0  0  0  0  0  0  0  0  0
    0.6559   -7.0286    0.0000 C   0  0  0  0  0  0  0  0  0  0  0  0
    2.0787   -7.5036    0.0000 N   0  0  0  0  0  0  0  0  0  0  0  0
    2.3787   -8.9733    0.0000 C   0  0  0  0  0  0  0  0  0  0  0  0
    3.8015   -9.4483    0.0000 C   0  0  0  0  0  0  0  0  0  0  0  0
    4.9243   -8.4536    0.0000 O   0  0  0  0  0  0  0  0  0  0  0  0
    4.6243   -6.9840    0.0000 C   0  0  0  0  0  0  0  0  0  0  0  0
    3.2015   -6.5090    0.0000 C   0  0  0  0  0  0  0  0  0  0  0  0
    0.3559   -5.5590    0.0000 C   0  0  0  0  0  0  0  0  0  0  0  0
    1.2570   -4.3598    0.0000 C   0  0  0  0  0  0  0  0  0  0  0  0
    1.4976   -2.8792    0.0000 C   0  0  0  0  0  0  0  0  0  0  0  0
    0.7500   -1.2990    0.0000 C   0  0  0  0  0  0  0  0  0  0  0  0
    1.5000    0.0000    0.0000 C   0  0  0  0  0  0  0  0  0  0  0  0
    0.7500    1.2990    0.0000 C   0  0  0  0  0  0  0  0  0  0  0  0
   -0.7500    1.2990    0.0000 C   0  0  0  0  0  0  0  0  0  0  0  0
   -1.5000    0.0000    0.0000 C   0  0  0  0  0  0  0  0  0  0  0  0
   -2.9697   -0.3000    0.0000 N   0  0  0  0  0  0  0  0  0  0  0  0
   -4.1316   -1.2487    0.0000 C   0  0  0  0  0  0  0  0  0  0  0  0
   -4.7195   -2.6287    0.0000 N   0  0  0  0  0  0  0  0  0  0  0  0
   -0.7500   -1.2990    0.0000 C   0  0  0  0  0  0  0  0  0  0  0  0
   -0.9993   -6.2020    0.0000 C   0  0  0  0  0  0  0  0  0  0  0  0
  1  2  1  0
  2  3  2  0
  3  4  1  0
  4  5  2  0
  5  6  1  0
  6  7  1  0
  7  8  1  0
  8  9  2  0
  9 10  1  0
 10 11  1  0
 11 12  1  0
 12 13  1  0
 13 14  1  0
 14 15  1  0
 15 16  1  0
 10 17  2  0
 17 18  1  0
 18 19  1  0
 19 20  1  0
 20 21  1  0
 21 22  2  0
 22 23  1  0
 23 24  2  0
 24 25  1  0
 25 26  1  0
 26 27  2  0
 24 28  1  0
 17 29  1  0
 26  2  1  0
 27  5  1  0
 29  7  2  0
 16 11  1  0
 28 20  2  0
M  END
>  <Ki>  (1) 
nan

>  <IC50>  (1) 
>10000

$$$$
