50715213
     RDKit          2D

 24 27  0  0  0  0  0  0  0  0999 V2000
    2.9418   -6.4791    0.0000 C   0  0  0  0  0  0  0  0  0  0  0  0
    3.2537   -5.0118    0.0000 N   0  0  0  0  0  0  0  0  0  0  0  0
    2.2500   -3.8971    0.0000 C   0  0  0  0  0  0  0  0  0  0  0  0
    3.0000   -2.5981    0.0000 C   0  0  0  0  0  0  0  0  0  0  0  0
    2.2500   -1.2990    0.0000 C   0  0  0  0  0  0  0  0  0  0  0  0
    3.0000   -0.0000    0.0000 C   0  0  0  0  0  0  0  0  0  0  0  0
    3.7500    1.2990    0.0000 N   0  0  0  0  0  0  0  0  0  0  0  0
    0.7500   -1.2990    0.0000 C   0  0  0  0  0  0  0  0  0  0  0  0
    1.5000    0.0000    0.0000 C   0  0  0  0  0  0  0  0  0  0  0  0
    0.7500    1.2990    0.0000 C   0  0  0  0  0  0  0  0  0  0  0  0
   -0.7500    1.2990    0.0000 N   0  0  0  0  0  0  0  0  0  0  0  0
   -1.5000    0.0000    0.0000 C   0  0  0  0  0  0  0  0  0  0  0  0
   -0.7500   -1.2990    0.0000 C   0  0  0  0  0  0  0  0  0  0  0  0
   -0.0000   -2.5981    0.0000 N   0  0  0  0  0  0  0  0  0  0  0  0
    0.7500   -3.8971    0.0000 C   0  0  0  0  0  0  0  0  0  0  0  0
   -0.0000   -5.1962    0.0000 O   0  0  0  0  0  0  0  0  0  0  0  0
    4.4672   -2.9099    0.0000 C   0  0  0  0  0  0  0  0  0  0  0  0
    5.6807   -2.0283    0.0000 C   0  0  0  0  0  0  0  0  0  0  0  0
    7.0511   -2.6384    0.0000 C   0  0  0  0  0  0  0  0  0  0  0  0
    7.2079   -4.1302    0.0000 C   0  0  0  0  0  0  0  0  0  0  0  0
    8.5782   -4.7403    0.0000 Cl  0  0  0  0  0  0  0  0  0  0  0  0
    5.9943   -5.0118    0.0000 C   0  0  0  0  0  0  0  0  0  0  0  0
    6.1511   -6.5036    0.0000 Cl  0  0  0  0  0  0  0  0  0  0  0  0
    4.6240   -4.4017    0.0000 C   0  0  0  0  0  0  0  0  0  0  0  0
  1  2  1  0
  2  3  1  0
  3  4  2  0
  4  5  1  0
  5  6  1  0
  6  7  3  0
  5  8  1  0
  8  9  1  0
  9 10  1  0
 10 11  1  0
 11 12  1  0
 12 13  1  0
  8 14  1  0
 14 15  1  0
 15 16  2  0
  4 17  1  0
 17 18  2  0
 18 19  1  0
 19 20  2  0
 20 21  1  0
 20 22  1  0
 22 23  1  0
 22 24  2  0
 24  2  1  0
 15  3  1  0
 24 17  1  0
 13  8  1  0
M  END
>  <Ki>  (1) 
nan

>  <IC50>  (1) 
>10000

$$$$
