50498214
     RDKit          2D

 40 44  0  0  0  0  0  0  0  0999 V2000
    3.0000    0.0000    0.0000 C   0  0  0  0  0  0  0  0  0  0  0  0
    1.5000    0.0000    0.0000 N   0  0  0  0  0  0  0  0  0  0  0  0
    0.7500   -1.2990    0.0000 C   0  0  0  0  0  0  0  0  0  0  0  0
   -0.7500   -1.2990    0.0000 C   0  0  0  0  0  0  0  0  0  0  0  0
   -1.5000    0.0000    0.0000 N   0  0  0  0  0  0  0  0  0  0  0  0
   -0.7500    1.2990    0.0000 C   0  0  0  0  0  0  0  0  0  0  0  0
    0.7500    1.2990    0.0000 C   0  0  0  0  0  0  0  0  0  0  0  0
   -3.0000    0.0000    0.0000 C   0  0  0  0  0  0  0  0  0  0  0  0
   -3.7500    1.2990    0.0000 C   0  0  0  0  0  0  0  0  0  0  0  0
   -5.2500    1.2990    0.0000 C   0  0  0  0  0  0  0  0  0  0  0  0
   -6.0000    0.0000    0.0000 C   0  0  0  0  0  0  0  0  0  0  0  0
   -5.2500   -1.2990    0.0000 C   0  0  0  0  0  0  0  0  0  0  0  0
   -3.7500   -1.2990    0.0000 C   0  0  0  0  0  0  0  0  0  0  0  0
   -7.5000    0.0000    0.0000 C   0  0  0  0  0  0  0  0  0  0  0  0
   -8.2500   -1.2990    0.0000 O   0  0  0  0  0  0  0  0  0  0  0  0
   -8.2500    1.2990    0.0000 N   0  0  0  0  0  0  0  0  0  0  0  0
   -9.7500    1.2990    0.0000 C   0  0  0  0  0  0  0  0  0  0  0  0
  -10.6317    0.0855    0.0000 C   0  0  0  0  0  0  0  0  0  0  0  0
  -12.0583    0.5490    0.0000 C   0  0  0  0  0  0  0  0  0  0  0  0
  -12.0583    2.0490    0.0000 N   0  0  0  0  0  0  0  0  0  0  0  0
  -10.6317    2.5126    0.0000 N   0  0  0  0  0  0  0  0  0  0  0  0
  -13.2718   -0.3326    0.0000 C   0  0  0  0  0  0  0  0  0  0  0  0
  -14.6421    0.2775    0.0000 C   0  0  0  0  0  0  0  0  0  0  0  0
  -15.8556   -0.6042    0.0000 C   0  0  0  0  0  0  0  0  0  0  0  0
  -15.6988   -2.0960    0.0000 C   0  0  0  0  0  0  0  0  0  0  0  0
  -16.9124   -2.9777    0.0000 N   0  0  0  0  0  0  0  0  0  0  0  0
  -18.2827   -2.3676    0.0000 C   0  0  0  0  0  0  0  0  0  0  0  0
  -18.4395   -0.8758    0.0000 O   0  0  0  0  0  0  0  0  0  0  0  0
  -19.4962   -3.2492    0.0000 N   0  0  0  0  0  0  0  0  0  0  0  0
  -20.8665   -2.6391    0.0000 C   0  0  0  0  0  0  0  0  0  0  0  0
  -22.1656   -3.3891    0.0000 C   0  0  0  0  0  0  0  0  0  0  0  0
  -23.2803   -2.3854    0.0000 C   0  0  0  0  0  0  0  0  0  0  0  0
  -22.6702   -1.0151    0.0000 O   0  0  0  0  0  0  0  0  0  0  0  0
  -21.1784   -1.1719    0.0000 N   0  0  0  0  0  0  0  0  0  0  0  0
  -24.7475   -2.6973    0.0000 C   0  0  0  0  0  0  0  0  0  0  0  0
  -25.0594   -1.2301    0.0000 C   0  0  0  0  0  0  0  0  0  0  0  0
  -24.4356   -4.1645    0.0000 C   0  0  0  0  0  0  0  0  0  0  0  0
  -26.2147   -3.0092    0.0000 C   0  0  0  0  0  0  0  0  0  0  0  0
  -14.3285   -2.7061    0.0000 C   0  0  0  0  0  0  0  0  0  0  0  0
  -13.1150   -1.8244    0.0000 C   0  0  0  0  0  0  0  0  0  0  0  0
  1  2  1  0
  2  3  1  0
  3  4  1  0
  4  5  1  0
  5  6  1  0
  6  7  1  0
  5  8  1  0
  8  9  2  0
  9 10  1  0
 10 11  2  0
 11 12  1  0
 12 13  2  0
 11 14  1  0
 14 15  2  0
 14 16  1  0
 16 17  1  0
 17 18  2  0
 18 19  1  0
 19 20  2  0
 20 21  1  0
 19 22  1  0
 22 23  2  0
 23 24  1  0
 24 25  2  0
 25 26  1  0
 26 27  1  0
 27 28  2  0
 27 29  1  0
 29 30  1  0
 30 31  1  0
 31 32  2  0
 32 33  1  0
 33 34  1  0
 32 35  1  0
 35 36  1  0
 35 37  1  0
 35 38  1  0
 25 39  1  0
 39 40  2  0
  7  2  1  0
 13  8  1  0
 21 17  1  0
 40 22  1  0
 34 30  2  0
M  END
>  <Ki>  (1) 
nan

>  <IC50>  (1) 
>10000

$$$$
