50995260
     RDKit          2D

 36 40  0  0  0  0  0  0  0  0999 V2000
   -6.4952   -2.8573    0.0000 C   0  0  0  0  0  0  0  0  0  0  0  0
   -5.1962   -3.6073    0.0000 C   0  0  0  0  0  0  0  0  0  0  0  0
   -5.1962   -5.1073    0.0000 O   0  0  0  0  0  0  0  0  0  0  0  0
   -6.4952   -5.8573    0.0000 C   0  0  0  0  0  0  0  0  0  0  0  0
   -6.4952   -7.3573    0.0000 C   0  0  0  0  0  0  0  0  0  0  0  0
   -7.7942   -8.1073    0.0000 C   0  0  0  0  0  0  0  0  0  0  0  0
   -9.0933   -7.3573    0.0000 N   0  0  0  0  0  0  0  0  0  0  0  0
   -9.0933   -5.8573    0.0000 C   0  0  0  0  0  0  0  0  0  0  0  0
  -10.3923   -5.1073    0.0000 N   0  0  0  0  0  0  0  0  0  0  0  0
  -10.3923   -3.6073    0.0000 C   0  0  0  0  0  0  0  0  0  0  0  0
  -11.6058   -2.7256    0.0000 N   0  0  0  0  0  0  0  0  0  0  0  0
  -11.1423   -1.2990    0.0000 C   0  0  0  0  0  0  0  0  0  0  0  0
  -11.8923   -0.0000    0.0000 C   0  0  0  0  0  0  0  0  0  0  0  0
  -11.1423    1.2990    0.0000 C   0  0  0  0  0  0  0  0  0  0  0  0
   -9.6423    1.2990    0.0000 C   0  0  0  0  0  0  0  0  0  0  0  0
   -8.8923   -0.0000    0.0000 C   0  0  0  0  0  0  0  0  0  0  0  0
   -9.6423   -1.2990    0.0000 C   0  0  0  0  0  0  0  0  0  0  0  0
   -9.1788   -2.7256    0.0000 N   0  0  0  0  0  0  0  0  0  0  0  0
   -7.7942   -5.1073    0.0000 C   0  0  0  0  0  0  0  0  0  0  0  0
   -3.8971   -2.8573    0.0000 C   0  0  0  0  0  0  0  0  0  0  0  0
   -2.5981   -3.6073    0.0000 C   0  0  0  0  0  0  0  0  0  0  0  0
   -1.2990   -2.8573    0.0000 C   0  0  0  0  0  0  0  0  0  0  0  0
   -1.2990   -1.3573    0.0000 C   0  0  0  0  0  0  0  0  0  0  0  0
   -2.5981   -0.6073    0.0000 C   0  0  0  0  0  0  0  0  0  0  0  0
   -3.8971   -1.3573    0.0000 C   0  0  0  0  0  0  0  0  0  0  0  0
   -2.5981    0.8927    0.0000 C   0  0  0  0  0  0  0  0  0  0  0  0
   -1.2990    1.6427    0.0000 O   0  0  0  0  0  0  0  0  0  0  0  0
   -3.8971    1.6427    0.0000 N   0  0  0  0  0  0  0  0  0  0  0  0
   -3.8971    3.1427    0.0000 C   0  0  0  0  0  0  0  0  0  0  0  0
   -5.1962    3.8927    0.0000 C   0  0  0  0  0  0  0  0  0  0  0  0
   -5.1962    5.3927    0.0000 C   0  0  0  0  0  0  0  0  0  0  0  0
   -6.4952    6.1427    0.0000 C   0  0  0  0  0  0  0  0  0  0  0  0
   -7.7942    5.3927    0.0000 C   0  0  0  0  0  0  0  0  0  0  0  0
   -9.0933    6.1427    0.0000 C   0  0  0  0  0  0  0  0  0  0  0  0
   -7.7942    3.8927    0.0000 C   0  0  0  0  0  0  0  0  0  0  0  0
   -6.4952    3.1427    0.0000 C   0  0  0  0  0  0  0  0  0  0  0  0
  1  2  1  0
  2  3  1  0
  3  4  1  0
  4  5  2  0
  5  6  1  0
  6  7  2  0
  7  8  1  0
  8  9  1  0
  9 10  1  0
 10 11  2  0
 11 12  1  0
 12 13  2  0
 13 14  1  0
 14 15  2  0
 15 16  1  0
 16 17  2  0
 17 18  1  0
  8 19  2  0
  2 20  1  0
 20 21  2  0
 21 22  1  0
 22 23  2  0
 23 24  1  0
 24 25  2  0
 24 26  1  0
 26 27  2  0
 26 28  1  0
 28 29  1  0
 29 30  1  0
 30 31  2  0
 31 32  1  0
 32 33  2  0
 33 34  1  0
 33 35  1  0
 35 36  2  0
 19  4  1  0
 25 20  1  0
 36 30  1  0
 18 10  1  0
 17 12  1  0
M  END
>  <Ki>  (1) 
nan

>  <IC50>  (1) 
>10000

$$$$
