255733
     RDKit          2D

 25 28  0  0  0  0  0  0  0  0999 V2000
   -4.1871   -7.5790    0.0000 C   0  0  0  0  0  0  0  0  0  0  0  0
   -3.4371   -6.2800    0.0000 C   0  0  0  0  0  0  0  0  0  0  0  0
   -2.0038   -6.7221    0.0000 N   0  0  0  0  0  0  0  0  0  0  0  0
   -0.5205   -6.4985    0.0000 C   0  0  0  0  0  0  0  0  0  0  0  0
    0.7189   -5.6535    0.0000 N   0  0  0  0  0  0  0  0  0  0  0  0
    1.4689   -4.3545    0.0000 C   0  0  0  0  0  0  0  0  0  0  0  0
    1.5809   -2.8587    0.0000 N   0  0  0  0  0  0  0  0  0  0  0  0
    0.7500   -1.2990    0.0000 C   0  0  0  0  0  0  0  0  0  0  0  0
    1.5000    0.0000    0.0000 C   0  0  0  0  0  0  0  0  0  0  0  0
    0.7500    1.2990    0.0000 C   0  0  0  0  0  0  0  0  0  0  0  0
   -0.7500    1.2990    0.0000 C   0  0  0  0  0  0  0  0  0  0  0  0
   -1.5000    0.0000    0.0000 C   0  0  0  0  0  0  0  0  0  0  0  0
   -2.9832   -0.2236    0.0000 C   0  0  0  0  0  0  0  0  0  0  0  0
   -4.2226   -1.0685    0.0000 O   0  0  0  0  0  0  0  0  0  0  0  0
   -4.9726   -2.3676    0.0000 C   0  0  0  0  0  0  0  0  0  0  0  0
   -6.4072   -2.9142    0.0000 C   0  0  0  0  0  0  0  0  0  0  0  0
   -6.9552   -4.3105    0.0000 C   0  0  0  0  0  0  0  0  0  0  0  0
   -6.0199   -5.4833    0.0000 C   0  0  0  0  0  0  0  0  0  0  0  0
   -4.5367   -5.2597    0.0000 C   0  0  0  0  0  0  0  0  0  0  0  0
   -5.0847   -3.8634    0.0000 C   0  0  0  0  0  0  0  0  0  0  0  0
   -0.7500   -1.2990    0.0000 C   0  0  0  0  0  0  0  0  0  0  0  0
    2.3462   -5.6143    0.0000 N   0  0  0  0  0  0  0  0  0  0  0  0
    2.0124   -7.0767    0.0000 C   0  0  0  0  0  0  0  0  0  0  0  0
    0.5791   -7.5188    0.0000 C   0  0  0  0  0  0  0  0  0  0  0  0
    0.2453   -8.9812    0.0000 Cl  0  0  0  0  0  0  0  0  0  0  0  0
  2  1  1  6
  2  3  1  0
  3  4  1  0
  4  5  1  0
  5  6  2  0
  6  7  1  0
  7  8  1  0
  8  9  1  0
  9 10  2  0
 10 11  1  0
 11 12  2  0
 12 13  1  0
 13 14  1  0
 14 15  1  0
 15 16  1  0
 16 17  2  0
 17 18  1  0
 18 19  2  0
 19 20  1  0
 12 21  1  0
  6 22  1  0
 22 23  2  0
 23 24  1  0
 24 25  1  0
 19  2  1  0
 24  4  2  0
 21  8  2  0
 20 15  2  0
M  END
>  <Ki>  (1) 
nan

>  <IC50>  (1) 
>10000

$$$$
