255735
     RDKit          2D

 25 28  0  0  0  0  0  0  0  0999 V2000
    0.9833   -9.0850    0.0000 Cl  0  0  0  0  0  0  0  0  0  0  0  0
    1.1401   -7.5932    0.0000 C   0  0  0  0  0  0  0  0  0  0  0  0
    2.5104   -6.9831    0.0000 C   0  0  0  0  0  0  0  0  0  0  0  0
    2.6672   -5.4913    0.0000 N   0  0  0  0  0  0  0  0  0  0  0  0
    1.6514   -4.3375    0.0000 C   0  0  0  0  0  0  0  0  0  0  0  0
    1.6514   -2.8375    0.0000 N   0  0  0  0  0  0  0  0  0  0  0  0
    0.7500   -1.2990    0.0000 C   0  0  0  0  0  0  0  0  0  0  0  0
    1.5000    0.0000    0.0000 C   0  0  0  0  0  0  0  0  0  0  0  0
    0.7500    1.2990    0.0000 C   0  0  0  0  0  0  0  0  0  0  0  0
   -0.7500    1.2990    0.0000 C   0  0  0  0  0  0  0  0  0  0  0  0
   -1.5000    0.0000    0.0000 C   0  0  0  0  0  0  0  0  0  0  0  0
   -2.9918   -0.1568    0.0000 C   0  0  0  0  0  0  0  0  0  0  0  0
   -4.2908   -0.9068    0.0000 O   0  0  0  0  0  0  0  0  0  0  0  0
   -5.1725   -2.1203    0.0000 C   0  0  0  0  0  0  0  0  0  0  0  0
   -6.6725   -2.4567    0.0000 C   0  0  0  0  0  0  0  0  0  0  0  0
   -7.4225   -3.7557    0.0000 C   0  0  0  0  0  0  0  0  0  0  0  0
   -6.6725   -5.0548    0.0000 C   0  0  0  0  0  0  0  0  0  0  0  0
   -5.1725   -5.0548    0.0000 C   0  0  0  0  0  0  0  0  0  0  0  0
   -4.2908   -6.2683    0.0000 C   0  0  0  0  0  0  0  0  0  0  0  0
   -2.9918   -7.0183    0.0000 C   0  0  0  0  0  0  0  0  0  0  0  0
   -1.5000   -7.1751    0.0000 N   0  0  0  0  0  0  0  0  0  0  0  0
   -0.0734   -6.7116    0.0000 C   0  0  0  0  0  0  0  0  0  0  0  0
    1.0413   -5.7079    0.0000 N   0  0  0  0  0  0  0  0  0  0  0  0
   -5.4844   -3.5875    0.0000 C   0  0  0  0  0  0  0  0  0  0  0  0
   -0.7500   -1.2990    0.0000 C   0  0  0  0  0  0  0  0  0  0  0  0
  1  2  1  0
  2  3  2  0
  3  4  1  0
  4  5  2  0
  5  6  1  0
  6  7  1  0
  7  8  1  0
  8  9  2  0
  9 10  1  0
 10 11  2  0
 11 12  1  0
 12 13  1  0
 13 14  1  0
 14 15  1  0
 15 16  2  0
 16 17  1  0
 17 18  2  0
 18 19  1  0
 19 20  1  0
 20 21  1  0
 21 22  1  0
 22 23  2  0
 18 24  1  0
 11 25  1  0
 22  2  1  0
 23  5  1  0
 25  7  2  0
 24 14  2  0
M  END
>  <Ki>  (1) 
nan

>  <IC50>  (1) 
>10000

$$$$
