255739
     RDKit          2D

 27 30  0  0  0  0  0  0  0  0999 V2000
    2.2164   -9.0841    0.0000 Cl  0  0  0  0  0  0  0  0  0  0  0  0
    2.0780   -7.5905    0.0000 C   0  0  0  0  0  0  0  0  0  0  0  0
    3.3023   -6.7239    0.0000 C   0  0  0  0  0  0  0  0  0  0  0  0
    3.1639   -5.2303    0.0000 N   0  0  0  0  0  0  0  0  0  0  0  0
    1.9478   -4.2846    0.0000 C   0  0  0  0  0  0  0  0  0  0  0  0
    1.7635   -2.7960    0.0000 N   0  0  0  0  0  0  0  0  0  0  0  0
    0.7500   -1.2990    0.0000 C   0  0  0  0  0  0  0  0  0  0  0  0
    1.5000    0.0000    0.0000 C   0  0  0  0  0  0  0  0  0  0  0  0
    0.7500    1.2990    0.0000 C   0  0  0  0  0  0  0  0  0  0  0  0
   -0.7500    1.2990    0.0000 C   0  0  0  0  0  0  0  0  0  0  0  0
   -1.5000    0.0000    0.0000 C   0  0  0  0  0  0  0  0  0  0  0  0
   -2.9993   -0.0462    0.0000 C   0  0  0  0  0  0  0  0  0  0  0  0
   -4.3806   -0.6309    0.0000 C   0  0  0  0  0  0  0  0  0  0  0  0
   -5.4575   -1.6751    0.0000 C   0  0  0  0  0  0  0  0  0  0  0  0
   -6.0845   -3.0378    0.0000 O   0  0  0  0  0  0  0  0  0  0  0  0
   -6.1768   -4.5349    0.0000 C   0  0  0  0  0  0  0  0  0  0  0  0
   -7.3323   -5.5537    0.0000 C   0  0  0  0  0  0  0  0  0  0  0  0
   -7.3785   -7.0530    0.0000 C   0  0  0  0  0  0  0  0  0  0  0  0
   -6.1032   -7.8426    0.0000 C   0  0  0  0  0  0  0  0  0  0  0  0
   -4.7817   -7.1330    0.0000 C   0  0  0  0  0  0  0  0  0  0  0  0
   -3.4826   -7.8830    0.0000 C   0  0  0  0  0  0  0  0  0  0  0  0
   -2.0004   -8.1130    0.0000 C   0  0  0  0  0  0  0  0  0  0  0  0
   -0.5351   -7.7921    0.0000 N   0  0  0  0  0  0  0  0  0  0  0  0
    0.7153   -6.9636    0.0000 C   0  0  0  0  0  0  0  0  0  0  0  0
    1.5819   -5.7393    0.0000 N   0  0  0  0  0  0  0  0  0  0  0  0
   -5.7221   -5.9643    0.0000 C   0  0  0  0  0  0  0  0  0  0  0  0
   -0.7500   -1.2990    0.0000 C   0  0  0  0  0  0  0  0  0  0  0  0
  1  2  1  0
  2  3  2  0
  3  4  1  0
  4  5  2  0
  5  6  1  0
  6  7  1  0
  7  8  1  0
  8  9  2  0
  9 10  1  0
 10 11  2  0
 11 12  1  0
 12 13  1  0
 13 14  1  0
 14 15  1  0
 15 16  1  0
 16 17  1  0
 17 18  2  0
 18 19  1  0
 19 20  2  0
 20 21  1  0
 21 22  1  0
 22 23  1  0
 23 24  1  0
 24 25  2  0
 20 26  1  0
 11 27  1  0
 24  2  1  0
 25  5  1  0
 27  7  2  0
 26 16  2  0
M  END
>  <Ki>  (1) 
nan

>  <IC50>  (1) 
>10000

$$$$
