51392705
     RDKit          2D

 68 74  0  0  0  0  0  0  0  0999 V2000
   12.0000  -18.1865    0.0000 C   0  0  0  0  0  0  0  0  0  0  0  0
   12.7500  -16.8875    0.0000 C   0  0  0  0  0  0  0  0  0  0  0  0
   12.0000  -15.5885    0.0000 C   0  0  0  0  0  0  0  0  0  0  0  0
   14.2500  -16.8875    0.0000 O   0  0  0  0  0  0  0  0  0  0  0  0
   15.0000  -15.5885    0.0000 C   0  0  0  0  0  0  0  0  0  0  0  0
   14.2500  -14.2894    0.0000 C   0  0  0  0  0  0  0  0  0  0  0  0
   15.0000  -12.9904    0.0000 C   0  0  0  0  0  0  0  0  0  0  0  0
   14.2500  -11.6913    0.0000 C   0  0  0  0  0  0  0  0  0  0  0  0
   15.0000  -10.3923    0.0000 C   0  0  0  0  0  0  0  0  0  0  0  0
   14.2500   -9.0933    0.0000 C   0  0  0  0  0  0  0  0  0  0  0  0
   12.7500   -9.0933    0.0000 N   0  0  0  0  0  0  0  0  0  0  0  0
   12.0000   -7.7942    0.0000 C   0  0  0  0  0  0  0  0  0  0  0  0
   10.5000   -7.7942    0.0000 C   0  0  0  0  0  0  0  0  0  0  0  0
    9.7500   -6.4952    0.0000 C   0  0  0  0  0  0  0  0  0  0  0  0
   10.5000   -5.1962    0.0000 O   0  0  0  0  0  0  0  0  0  0  0  0
    8.2500   -6.4952    0.0000 N   0  0  0  0  0  0  0  0  0  0  0  0
    7.5000   -5.1962    0.0000 C   0  0  0  0  0  0  0  0  0  0  0  0
    6.0000   -5.1962    0.0000 C   0  0  0  0  0  0  0  0  0  0  0  0
    5.2500   -3.8971    0.0000 O   0  0  0  0  0  0  0  0  0  0  0  0
    3.7500   -3.8971    0.0000 C   0  0  0  0  0  0  0  0  0  0  0  0
    3.0000   -2.5981    0.0000 C   0  0  0  0  0  0  0  0  0  0  0  0
    1.5000   -2.5981    0.0000 N   0  0  0  0  0  0  0  0  0  0  0  0
    0.7500   -1.2990    0.0000 C   0  0  0  0  0  0  0  0  0  0  0  0
    1.5000    0.0000    0.0000 C   0  0  0  0  0  0  0  0  0  0  0  0
    0.7500    1.2990    0.0000 C   0  0  0  0  0  0  0  0  0  0  0  0
   -0.7500    1.2990    0.0000 C   0  0  0  0  0  0  0  0  0  0  0  0
   -1.5000    0.0000    0.0000 C   0  0  0  0  0  0  0  0  0  0  0  0
   -2.9672   -0.3119    0.0000 C   0  0  0  0  0  0  0  0  0  0  0  0
   -4.0819    0.6918    0.0000 O   0  0  0  0  0  0  0  0  0  0  0  0
   -3.1240   -1.8037    0.0000 N   0  0  0  0  0  0  0  0  0  0  0  0
   -4.4231   -2.5537    0.0000 C   0  0  0  0  0  0  0  0  0  0  0  0
   -5.7221   -1.8037    0.0000 C   0  0  0  0  0  0  0  0  0  0  0  0
   -7.0211   -2.5537    0.0000 C   0  0  0  0  0  0  0  0  0  0  0  0
   -7.0211   -4.0537    0.0000 C   0  0  0  0  0  0  0  0  0  0  0  0
   -8.3202   -4.8037    0.0000 O   0  0  0  0  0  0  0  0  0  0  0  0
   -5.7221   -4.8037    0.0000 N   0  0  0  0  0  0  0  0  0  0  0  0
   -4.4231   -4.0537    0.0000 C   0  0  0  0  0  0  0  0  0  0  0  0
   -3.1240   -4.8037    0.0000 O   0  0  0  0  0  0  0  0  0  0  0  0
   -1.7537   -2.4138    0.0000 C   0  0  0  0  0  0  0  0  0  0  0  0
   -1.4418   -3.8810    0.0000 O   0  0  0  0  0  0  0  0  0  0  0  0
   -0.7500   -1.2990    0.0000 C   0  0  0  0  0  0  0  0  0  0  0  0
   12.0000  -10.3923    0.0000 C   0  0  0  0  0  0  0  0  0  0  0  0
   12.7500  -11.6913    0.0000 C   0  0  0  0  0  0  0  0  0  0  0  0
   16.5000  -12.9904    0.0000 C   0  0  0  0  0  0  0  0  0  0  0  0
   17.2500  -11.6913    0.0000 C   0  0  0  0  0  0  0  0  0  0  0  0
   17.2500  -14.2894    0.0000 C   0  0  0  0  0  0  0  0  0  0  0  0
   16.5000  -15.5885    0.0000 C   0  0  0  0  0  0  0  0  0  0  0  0
   17.2500  -16.8875    0.0000 N   0  0  0  0  0  0  0  0  0  0  0  0
   18.7500  -16.8875    0.0000 C   0  0  0  0  0  0  0  0  0  0  0  0
   19.5000  -18.1865    0.0000 N   0  0  0  0  0  0  0  0  0  0  0  0
   21.0000  -18.1865    0.0000 C   0  0  0  0  0  0  0  0  0  0  0  0
   21.7500  -16.8875    0.0000 C   0  0  0  0  0  0  0  0  0  0  0  0
   23.2500  -16.8875    0.0000 Cl  0  0  0  0  0  0  0  0  0  0  0  0
   21.0000  -15.5885    0.0000 C   0  0  0  0  0  0  0  0  0  0  0  0
   21.7500  -14.2894    0.0000 N   0  0  0  0  0  0  0  0  0  0  0  0
   21.0000  -12.9904    0.0000 C   0  0  0  0  0  0  0  0  0  0  0  0
   19.5000  -12.9904    0.0000 C   0  0  0  0  0  0  0  0  0  0  0  0
   18.7500  -11.6913    0.0000 C   0  0  0  0  0  0  0  0  0  0  0  0
   19.5000  -10.3923    0.0000 C   0  0  0  0  0  0  0  0  0  0  0  0
   21.0000  -10.3923    0.0000 C   0  0  0  0  0  0  0  0  0  0  0  0
   21.7500  -11.6913    0.0000 C   0  0  0  0  0  0  0  0  0  0  0  0
   23.2500  -11.6913    0.0000 S   0  0  0  0  0  0  0  0  0  0  0  0
   23.2500  -13.1913    0.0000 O   0  0  0  0  0  0  0  0  0  0  0  0
   23.2500  -10.1913    0.0000 O   0  0  0  0  0  0  0  0  0  0  0  0
   24.7500  -11.6913    0.0000 C   0  0  0  0  0  0  0  0  0  0  0  0
   25.5000  -12.9904    0.0000 C   0  0  0  0  0  0  0  0  0  0  0  0
   25.5000  -10.3923    0.0000 C   0  0  0  0  0  0  0  0  0  0  0  0
   19.5000  -15.5885    0.0000 N   0  0  0  0  0  0  0  0  0  0  0  0
  1  2  1  0
  2  3  1  0
  2  4  1  0
  4  5  1  0
  5  6  2  0
  6  7  1  0
  7  8  1  0
  8  9  1  0
  9 10  1  0
 10 11  1  0
 11 12  1  0
 12 13  1  0
 13 14  1  0
 14 15  2  0
 14 16  1  0
 16 17  1  0
 17 18  1  0
 18 19  1  0
 19 20  1  0
 20 21  1  0
 21 22  1  0
 22 23  1  0
 23 24  2  0
 24 25  1  0
 25 26  2  0
 26 27  1  0
 27 28  1  0
 28 29  2  0
 28 30  1  0
 30 31  1  0
 31 32  1  0
 32 33  1  0
 33 34  1  0
 34 35  2  0
 34 36  1  0
 36 37  1  0
 37 38  2  0
 30 39  1  0
 39 40  2  0
 39 41  1  0
 11 42  1  0
 42 43  1  0
  7 44  2  0
 44 45  1  0
 44 46  1  0
 46 47  2  0
 47 48  1  0
 48 49  1  0
 49 50  2  0
 50 51  1  0
 51 52  2  0
 52 53  1  0
 52 54  1  0
 54 55  1  0
 55 56  1  0
 56 57  2  0
 57 58  1  0
 58 59  2  0
 59 60  1  0
 60 61  2  0
 61 62  1  0
 62 63  2  0
 62 64  2  0
 62 65  1  0
 65 66  1  0
 65 67  1  0
 54 68  2  0
 47  5  1  0
 68 49  1  0
 43  8  1  0
 61 56  1  0
 41 23  1  0
 41 27  2  0
 37 31  1  0
M  END
>  <Ki>  (1) 
nan

>  <IC50>  (1) 
 10200

$$$$
