494101
     RDKit          2D

 37 41  0  0  0  0  0  0  0  0999 V2000
    3.0000    0.0000    0.0000 C   0  0  0  0  0  0  0  0  0  0  0  0
    1.5000    0.0000    0.0000 N   0  0  0  0  0  0  0  0  0  0  0  0
    0.7500   -1.2990    0.0000 C   0  0  0  0  0  0  0  0  0  0  0  0
   -0.7500   -1.2990    0.0000 C   0  0  0  0  0  0  0  0  0  0  0  0
   -1.5000    0.0000    0.0000 N   0  0  0  0  0  0  0  0  0  0  0  0
   -3.0000    0.0000    0.0000 C   0  0  0  0  0  0  0  0  0  0  0  0
   -3.7500    1.2990    0.0000 C   0  0  0  0  0  0  0  0  0  0  0  0
   -3.0000    2.5981    0.0000 C   0  0  0  0  0  0  0  0  0  0  0  0
   -3.7500    3.8971    0.0000 C   0  0  0  0  0  0  0  0  0  0  0  0
   -5.2500    3.8971    0.0000 C   0  0  0  0  0  0  0  0  0  0  0  0
   -6.0000    2.5981    0.0000 C   0  0  0  0  0  0  0  0  0  0  0  0
   -5.2500    1.2990    0.0000 C   0  0  0  0  0  0  0  0  0  0  0  0
   -6.0000    5.1962    0.0000 C   0  0  0  0  0  0  0  0  0  0  0  0
   -7.5000    5.1962    0.0000 O   0  0  0  0  0  0  0  0  0  0  0  0
   -5.2500    6.4952    0.0000 N   0  0  0  0  0  0  0  0  0  0  0  0
   -6.0000    7.7942    0.0000 C   0  0  0  0  0  0  0  0  0  0  0  0
   -7.4918    7.9510    0.0000 N   0  0  0  0  0  0  0  0  0  0  0  0
   -7.8037    9.4182    0.0000 C   0  0  0  0  0  0  0  0  0  0  0  0
   -6.5046   10.1682    0.0000 C   0  0  0  0  0  0  0  0  0  0  0  0
   -5.3899    9.1645    0.0000 S   0  0  0  0  0  0  0  0  0  0  0  0
   -9.1740   10.0283    0.0000 C   0  0  0  0  0  0  0  0  0  0  0  0
   -9.3308   11.5201    0.0000 C   0  0  0  0  0  0  0  0  0  0  0  0
  -10.7011   12.1302    0.0000 C   0  0  0  0  0  0  0  0  0  0  0  0
  -11.9146   11.2486    0.0000 C   0  0  0  0  0  0  0  0  0  0  0  0
  -11.7578    9.7568    0.0000 C   0  0  0  0  0  0  0  0  0  0  0  0
  -10.3875    9.1467    0.0000 C   0  0  0  0  0  0  0  0  0  0  0  0
  -12.9713    8.8751    0.0000 C   0  0  0  0  0  0  0  0  0  0  0  0
  -14.1849    7.9934    0.0000 C   0  0  0  0  0  0  0  0  0  0  0  0
  -15.3984    7.1117    0.0000 C   0  0  0  0  0  0  0  0  0  0  0  0
  -16.7687    7.7218    0.0000 C   0  0  0  0  0  0  0  0  0  0  0  0
  -17.9822    6.8402    0.0000 C   0  0  0  0  0  0  0  0  0  0  0  0
  -17.8254    5.3484    0.0000 C   0  0  0  0  0  0  0  0  0  0  0  0
  -19.0390    4.4667    0.0000 F   0  0  0  0  0  0  0  0  0  0  0  0
  -16.4551    4.7383    0.0000 C   0  0  0  0  0  0  0  0  0  0  0  0
  -15.2416    5.6200    0.0000 C   0  0  0  0  0  0  0  0  0  0  0  0
   -0.7500    1.2990    0.0000 C   0  0  0  0  0  0  0  0  0  0  0  0
    0.7500    1.2990    0.0000 C   0  0  0  0  0  0  0  0  0  0  0  0
  1  2  1  0
  2  3  1  0
  3  4  1  0
  4  5  1  0
  5  6  1  0
  6  7  1  0
  7  8  2  0
  8  9  1  0
  9 10  2  0
 10 11  1  0
 11 12  2  0
 10 13  1  0
 13 14  2  0
 13 15  1  0
 15 16  1  0
 16 17  2  0
 17 18  1  0
 18 19  2  0
 19 20  1  0
 18 21  1  0
 21 22  2  0
 22 23  1  0
 23 24  2  0
 24 25  1  0
 25 26  2  0
 25 27  1  0
 27 28  3  0
 28 29  1  0
 29 30  2  0
 30 31  1  0
 31 32  2  0
 32 33  1  0
 32 34  1  0
 34 35  2  0
  5 36  1  0
 36 37  1  0
 37  2  1  0
 12  7  1  0
 20 16  1  0
 26 21  1  0
 35 29  1  0
M  END
>  <Ki>  (1) 
nan

>  <IC50>  (1) 
 15000

$$$$
