50697870
     RDKit          2D

 24 26  0  0  0  0  0  0  0  0999 V2000
   -3.4140   -3.2326    0.0000 N   0  0  0  0  0  0  0  0  0  0  0  0
   -4.1640   -1.9336    0.0000 C   0  0  0  0  0  0  0  0  0  0  0  0
   -5.6640   -1.9336    0.0000 N   0  0  0  0  0  0  0  0  0  0  0  0
   -3.4140   -0.6346    0.0000 N   0  0  0  0  0  0  0  0  0  0  0  0
   -4.1640    0.6645    0.0000 N   0  0  0  0  0  0  0  0  0  0  0  0
   -3.4140    1.9635    0.0000 C   0  0  0  0  0  0  0  0  0  0  0  0
   -1.9140    1.9635    0.0000 C   0  0  0  0  0  0  0  0  0  0  0  0
   -1.0323    3.1771    0.0000 C   0  0  0  0  0  0  0  0  0  0  0  0
    0.3943    2.7135    0.0000 N   0  0  0  0  0  0  0  0  0  0  0  0
    0.3943    1.2135    0.0000 C   0  0  0  0  0  0  0  0  0  0  0  0
    1.2760    0.0000    0.0000 S   0  0  0  0  0  0  0  0  0  0  0  0
    0.3943   -1.2135    0.0000 C   0  0  0  0  0  0  0  0  0  0  0  0
    0.8578   -2.6401    0.0000 Br  0  0  0  0  0  0  0  0  0  0  0  0
   -1.0323   -0.7500    0.0000 C   0  0  0  0  0  0  0  0  0  0  0  0
   -1.0323    0.7500    0.0000 N   0  0  0  0  0  0  0  0  0  0  0  0
   -1.4958    4.6036    0.0000 C   0  0  0  0  0  0  0  0  0  0  0  0
   -0.4921    5.7184    0.0000 C   0  0  0  0  0  0  0  0  0  0  0  0
   -0.9556    7.1449    0.0000 C   0  0  0  0  0  0  0  0  0  0  0  0
   -2.4229    7.4568    0.0000 C   0  0  0  0  0  0  0  0  0  0  0  0
   -3.4266    6.3421    0.0000 C   0  0  0  0  0  0  0  0  0  0  0  0
   -2.9630    4.9155    0.0000 C   0  0  0  0  0  0  0  0  0  0  0  0
   -2.8864    8.8834    0.0000 N   0  0  0  0  0  4  0  0  0  0  0  0
   -1.8827    9.9981    0.0000 O   0  0  0  0  0  1  0  0  0  0  0  0
   -4.3536    9.1953    0.0000 O   0  0  0  0  0  0  0  0  0  0  0  0
  1  2  1  0
  2  3  2  0
  2  4  1  0
  4  5  1  0
  5  6  2  0
  6  7  1  0
  7  8  2  0
  8  9  1  0
  9 10  2  0
 10 11  1  0
 11 12  1  0
 12 13  1  0
 12 14  2  0
 14 15  1  0
  8 16  1  0
 16 17  2  0
 17 18  1  0
 18 19  2  0
 19 20  1  0
 20 21  2  0
 19 22  1  0
 22 23  1  0
 22 24  2  0
 15  7  1  0
 21 16  1  0
 15 10  1  0
M  CHG  2  22   1  23  -1
M  END
>  <Ki>  (1) 
nan

>  <IC50>  (1) 
>20000

$$$$
