50154144
     RDKit          2D

 34 39  0  0  0  0  0  0  0  0999 V2000
    3.0000    0.0000    0.0000 Cl  0  0  0  0  0  0  0  0  0  0  0  0
    1.5000    0.0000    0.0000 C   0  0  0  0  0  0  0  0  0  0  0  0
    0.7500   -1.2990    0.0000 N   0  0  0  0  0  0  0  0  0  0  0  0
   -0.7500   -1.2990    0.0000 C   0  0  0  0  0  0  0  0  0  0  0  0
   -1.5000    0.0000    0.0000 C   0  0  0  0  0  0  0  0  0  0  0  0
   -0.7500    1.2990    0.0000 C   0  0  0  0  0  0  0  0  0  0  0  0
   -1.6852    2.4718    0.0000 N   0  0  0  0  0  0  0  0  0  0  0  0
   -3.1476    2.1380    0.0000 C   0  0  0  0  0  0  0  0  0  0  0  0
   -4.1679    3.2376    0.0000 C   0  0  0  0  0  0  0  0  0  0  0  0
   -5.6303    2.9038    0.0000 C   0  0  0  0  0  0  0  0  0  0  0  0
   -6.6505    4.0034    0.0000 C   0  0  0  0  0  0  0  0  0  0  0  0
   -8.1129    3.6696    0.0000 C   0  0  0  0  0  0  0  0  0  0  0  0
   -8.5551    2.2362    0.0000 C   0  0  0  0  0  0  0  0  0  0  0  0
   -7.5348    1.1367    0.0000 C   0  0  0  0  0  0  0  0  0  0  0  0
   -6.0724    1.4704    0.0000 C   0  0  0  0  0  0  0  0  0  0  0  0
   -3.7258    4.6709    0.0000 C   0  0  0  0  0  0  0  0  0  0  0  0
   -2.2634    5.0047    0.0000 C   0  0  0  0  0  0  0  0  0  0  0  0
   -1.8212    6.4381    0.0000 C   0  0  0  0  0  0  0  0  0  0  0  0
   -2.8415    7.5377    0.0000 C   0  0  0  0  0  0  0  0  0  0  0  0
   -4.3039    7.2039    0.0000 C   0  0  0  0  0  0  0  0  0  0  0  0
   -4.7460    5.7705    0.0000 C   0  0  0  0  0  0  0  0  0  0  0  0
   -1.3515    3.9342    0.0000 C   0  0  0  0  0  0  0  0  0  0  0  0
   -0.0000    4.5850    0.0000 C   0  0  0  0  0  0  0  0  0  0  0  0
    1.3515    3.9342    0.0000 C   0  0  0  0  0  0  0  0  0  0  0  0
    1.6852    2.4718    0.0000 C   0  0  0  0  0  0  0  0  0  0  0  0
    3.1792    2.3373    0.0000 N   0  0  0  0  0  0  0  0  0  0  0  0
    3.7687    3.7166    0.0000 C   0  0  0  0  0  0  0  0  0  0  0  0
    5.1882    4.2014    0.0000 C   0  0  0  0  0  0  0  0  0  0  0  0
    5.4781    5.6732    0.0000 C   0  0  0  0  0  0  0  0  0  0  0  0
    4.3485    6.6601    0.0000 C   0  0  0  0  0  0  0  0  0  0  0  0
    4.6384    8.1318    0.0000 Br  0  0  0  0  0  0  0  0  0  0  0  0
    2.9290    6.1752    0.0000 C   0  0  0  0  0  0  0  0  0  0  0  0
    2.6391    4.7035    0.0000 C   0  0  0  0  0  0  0  0  0  0  0  0
    0.7500    1.2990    0.0000 C   0  0  0  0  0  0  0  0  0  0  0  0
  1  2  1  0
  2  3  2  0
  3  4  1  0
  4  5  2  0
  5  6  1  0
  6  7  1  0
  7  8  1  0
  8  9  1  0
  9 10  1  0
 10 11  2  0
 11 12  1  0
 12 13  2  0
 13 14  1  0
 14 15  2  0
  9 16  1  0
 16 17  2  0
 17 18  1  0
 18 19  2  0
 19 20  1  0
 20 21  2  0
  7 22  1  0
 22 23  1  0
 23 24  1  0
 24 25  2  0
 25 26  1  0
 26 27  1  0
 27 28  2  0
 28 29  1  0
 29 30  2  0
 30 31  1  0
 30 32  1  0
 32 33  2  0
 25 34  1  0
 34  2  1  0
 34  6  2  0
 15 10  1  0
 21 16  1  0
 33 24  1  0
 33 27  1  0
M  END
>  <Ki>  (1) 
nan

>  <IC50>  (1) 
>40000

$$$$
