493956
     RDKit          2D

 38 42  0  0  0  0  0  0  0  0999 V2000
    3.7500   -1.2990    0.0000 C   0  0  0  0  0  0  0  0  0  0  0  0
    3.0000    0.0000    0.0000 O   0  0  0  0  0  0  0  0  0  0  0  0
    1.5000    0.0000    0.0000 C   0  0  0  0  0  0  0  0  0  0  0  0
    0.7500   -1.2990    0.0000 C   0  0  0  0  0  0  0  0  0  0  0  0
   -0.7500   -1.2990    0.0000 C   0  0  0  0  0  0  0  0  0  0  0  0
   -1.5000    0.0000    0.0000 C   0  0  0  0  0  0  0  0  0  0  0  0
   -0.7500    1.2990    0.0000 C   0  0  0  0  0  0  0  0  0  0  0  0
    0.7500    1.2990    0.0000 C   0  0  0  0  0  0  0  0  0  0  0  0
   -3.0000    0.0000    0.0000 C   0  0  0  0  0  0  0  0  0  0  0  0
   -4.5000    0.0000    0.0000 C   0  0  0  0  0  0  0  0  0  0  0  0
   -6.0000    0.0000    0.0000 C   0  0  0  0  0  0  0  0  0  0  0  0
   -6.7500    1.2990    0.0000 C   0  0  0  0  0  0  0  0  0  0  0  0
   -8.2500    1.2990    0.0000 C   0  0  0  0  0  0  0  0  0  0  0  0
   -9.0000    0.0000    0.0000 C   0  0  0  0  0  0  0  0  0  0  0  0
   -8.2500   -1.2990    0.0000 C   0  0  0  0  0  0  0  0  0  0  0  0
   -6.7500   -1.2990    0.0000 C   0  0  0  0  0  0  0  0  0  0  0  0
   -9.0000   -2.5981    0.0000 C   0  0  0  0  0  0  0  0  0  0  0  0
   -8.3899   -3.9684    0.0000 C   0  0  0  0  0  0  0  0  0  0  0  0
   -9.5046   -4.9721    0.0000 S   0  0  0  0  0  0  0  0  0  0  0  0
  -10.8037   -4.2221    0.0000 C   0  0  0  0  0  0  0  0  0  0  0  0
  -12.1740   -4.8322    0.0000 N   0  0  0  0  0  0  0  0  0  0  0  0
  -13.3875   -3.9505    0.0000 C   0  0  0  0  0  0  0  0  0  0  0  0
  -13.2307   -2.4587    0.0000 O   0  0  0  0  0  0  0  0  0  0  0  0
  -14.7578   -4.5606    0.0000 C   0  0  0  0  0  0  0  0  0  0  0  0
  -15.9713   -3.6789    0.0000 C   0  0  0  0  0  0  0  0  0  0  0  0
  -17.3417   -4.2890    0.0000 C   0  0  0  0  0  0  0  0  0  0  0  0
  -17.4984   -5.7808    0.0000 C   0  0  0  0  0  0  0  0  0  0  0  0
  -18.8688   -6.3909    0.0000 C   0  0  0  0  0  0  0  0  0  0  0  0
  -20.0823   -5.5093    0.0000 N   0  0  0  0  0  0  0  0  0  0  0  0
  -19.9255   -4.0175    0.0000 C   0  0  0  0  0  0  0  0  0  0  0  0
  -21.1390   -3.1358    0.0000 C   0  0  0  0  0  0  0  0  0  0  0  0
  -22.5093   -3.7459    0.0000 N   0  0  0  0  0  0  0  0  0  0  0  0
  -23.7229   -2.8642    0.0000 C   0  0  0  0  0  0  0  0  0  0  0  0
  -22.6661   -5.2377    0.0000 C   0  0  0  0  0  0  0  0  0  0  0  0
  -21.4526   -6.1194    0.0000 C   0  0  0  0  0  0  0  0  0  0  0  0
  -16.2849   -6.6625    0.0000 C   0  0  0  0  0  0  0  0  0  0  0  0
  -14.9146   -6.0524    0.0000 C   0  0  0  0  0  0  0  0  0  0  0  0
  -10.4918   -2.7549    0.0000 N   0  0  0  0  0  0  0  0  0  0  0  0
  1  2  1  0
  2  3  1  0
  3  4  2  0
  4  5  1  0
  5  6  2  0
  6  7  1  0
  7  8  2  0
  6  9  1  0
  9 10  3  0
 10 11  1  0
 11 12  2  0
 12 13  1  0
 13 14  2  0
 14 15  1  0
 15 16  2  0
 15 17  1  0
 17 18  2  0
 18 19  1  0
 19 20  1  0
 20 21  1  0
 21 22  1  0
 22 23  2  0
 22 24  1  0
 24 25  2  0
 25 26  1  0
 26 27  2  0
 27 28  1  0
 28 29  1  0
 29 30  1  0
 30 31  1  0
 31 32  1  0
 32 33  1  0
 32 34  1  0
 34 35  1  0
 27 36  1  0
 36 37  2  0
 20 38  2  0
  8  3  1  0
 16 11  1  0
 38 17  1  0
 37 24  1  0
 35 29  1  0
M  END
>  <Ki>  (1) 
nan

>  <IC50>  (1) 
 45000

$$$$
