51093152
     RDKit          2D

 21 24  0  0  0  0  0  0  0  0999 V2000
    3.0000    0.0000    0.0000 Br  0  0  0  0  0  0  0  0  0  0  0  0
    1.5000    0.0000    0.0000 C   0  0  0  0  0  0  0  0  0  0  0  0
    0.7500   -1.2990    0.0000 C   0  0  0  0  0  0  0  0  0  0  0  0
   -0.7500   -1.2990    0.0000 C   0  0  0  0  0  0  0  0  0  0  0  0
   -1.5000    0.0000    0.0000 C   0  0  0  0  0  0  0  0  0  0  0  0
   -2.9672    0.3119    0.0000 N   0  0  0  0  0  0  0  0  0  0  0  0
   -3.1240    1.8037    0.0000 C   0  0  0  0  0  0  0  0  0  0  0  0
   -4.3375    2.6853    0.0000 C   0  0  0  0  0  0  0  0  0  0  0  0
   -4.1807    4.1771    0.0000 C   0  0  0  0  0  0  0  0  0  0  0  0
   -5.3943    5.0588    0.0000 N   0  0  0  0  0  0  0  0  0  0  0  0
   -5.2375    6.5506    0.0000 C   0  0  0  0  0  0  0  0  0  0  0  0
   -3.8672    7.1607    0.0000 C   0  0  0  0  0  0  0  0  0  0  0  0
   -3.7104    8.6525    0.0000 C   0  0  0  0  0  0  0  0  0  0  0  0
   -4.9239    9.5341    0.0000 C   0  0  0  0  0  0  0  0  0  0  0  0
   -6.2942    8.9240    0.0000 C   0  0  0  0  0  0  0  0  0  0  0  0
   -6.4510    7.4322    0.0000 C   0  0  0  0  0  0  0  0  0  0  0  0
   -2.8104    4.7872    0.0000 N   0  0  0  0  0  0  0  0  0  0  0  0
   -1.5969    3.9055    0.0000 C   0  0  0  0  0  0  0  0  0  0  0  0
   -1.7537    2.4138    0.0000 N   0  0  0  0  0  0  0  0  0  0  0  0
   -0.7500    1.2990    0.0000 C   0  0  0  0  0  0  0  0  0  0  0  0
    0.7500    1.2990    0.0000 C   0  0  0  0  0  0  0  0  0  0  0  0
  1  2  1  0
  2  3  2  0
  3  4  1  0
  4  5  2  0
  5  6  1  0
  6  7  2  0
  7  8  1  0
  8  9  2  0
  9 10  1  0
 10 11  1  0
 11 12  2  0
 12 13  1  0
 13 14  2  0
 14 15  1  0
 15 16  2  0
  9 17  1  0
 17 18  2  0
 18 19  1  0
 19 20  1  0
 20 21  2  0
 21  2  1  0
 20  5  1  0
 19  7  1  0
 16 11  1  0
M  END
>  <Ki>  (1) 
nan

>  <IC50>  (1) 
 69000

$$$$
