51409507
     RDKit          2D

 58 66  0  0  0  0  0  0  0  0999 V2000
   -6.8516   -6.6578    0.0000 C   0  0  0  0  0  0  0  0  0  0  0  0
   -5.6381   -7.5395    0.0000 C   0  0  0  0  0  0  0  0  0  0  0  0
   -4.2677   -6.9294    0.0000 C   0  0  0  0  0  0  0  0  0  0  0  0
   -4.1110   -5.4376    0.0000 C   0  0  0  0  0  0  0  0  0  0  0  0
   -2.7406   -4.8275    0.0000 C   0  0  0  0  0  0  0  0  0  0  0  0
   -2.5838   -3.3357    0.0000 C   0  0  0  0  0  0  0  0  0  0  0  0
   -3.7974   -2.4540    0.0000 O   0  0  0  0  0  0  0  0  0  0  0  0
   -1.2135   -2.7256    0.0000 C   0  0  0  0  0  0  0  0  0  0  0  0
    0.0000   -3.6073    0.0000 C   0  0  0  0  0  0  0  0  0  0  0  0
    1.2135   -2.7256    0.0000 N   0  0  0  0  0  0  0  0  0  0  0  0
    0.7500   -1.2990    0.0000 C   0  0  0  0  0  0  0  0  0  0  0  0
    1.5000    0.0000    0.0000 C   0  0  0  0  0  0  0  0  0  0  0  0
    0.7500    1.2990    0.0000 C   0  0  0  0  0  0  0  0  0  0  0  0
   -0.7500    1.2990    0.0000 C   0  0  0  0  0  0  0  0  0  0  0  0
   -1.5000    0.0000    0.0000 C   0  0  0  0  0  0  0  0  0  0  0  0
   -0.7500   -1.2990    0.0000 C   0  0  0  0  0  0  0  0  0  0  0  0
    1.5000    2.5981    0.0000 C   0  0  0  0  0  0  0  0  0  0  0  0
    2.2500    3.8971    0.0000 N   0  0  0  0  0  0  0  0  0  0  0  0
   -0.1568   -5.0991    0.0000 C   0  0  0  0  0  0  0  0  0  0  0  0
    0.2061   -6.5545    0.0000 C   0  0  0  0  0  0  0  0  0  0  0  0
    1.3396   -4.9944    0.0000 C   0  0  0  0  0  0  0  0  0  0  0  0
   -1.5271   -5.7092    0.0000 C   0  0  0  0  0  0  0  0  0  0  0  0
   -1.6839   -7.2010    0.0000 C   0  0  0  0  0  0  0  0  0  0  0  0
   -3.0542   -7.8111    0.0000 C   0  0  0  0  0  0  0  0  0  0  0  0
   -3.2110   -9.3029    0.0000 N   0  0  0  0  0  0  0  0  0  0  0  0
   -4.5813   -9.9130    0.0000 C   0  0  0  0  0  0  0  0  0  0  0  0
   -4.7381  -11.4047    0.0000 C   0  0  0  0  0  0  0  0  0  0  0  0
   -3.5246  -12.2864    0.0000 C   0  0  0  0  0  0  0  0  0  0  0  0
   -2.1543  -11.6763    0.0000 C   0  0  0  0  0  0  0  0  0  0  0  0
   -1.9975  -10.1845    0.0000 C   0  0  0  0  0  0  0  0  0  0  0  0
   -3.6814  -13.7782    0.0000 N   0  0  0  0  0  0  0  0  0  0  0  0
   -5.0517  -14.3883    0.0000 C   0  0  0  0  0  0  0  0  0  0  0  0
   -5.2085  -15.8801    0.0000 C   0  0  0  0  0  0  0  0  0  0  0  0
   -3.9950  -16.7618    0.0000 N   0  0  0  0  0  0  0  0  0  0  0  0
   -2.6247  -16.1517    0.0000 C   0  0  0  0  0  0  0  0  0  0  0  0
   -2.4679  -14.6599    0.0000 C   0  0  0  0  0  0  0  0  0  0  0  0
   -4.1518  -18.2536    0.0000 C   0  0  0  0  0  0  0  0  0  0  0  0
   -2.9382  -19.1352    0.0000 O   0  0  0  0  0  0  0  0  0  0  0  0
   -5.5221  -18.8637    0.0000 C   0  0  0  0  0  0  0  0  0  0  0  0
   -5.6789  -20.3554    0.0000 N   0  0  0  0  0  0  0  0  0  0  0  0
   -7.0492  -20.9655    0.0000 C   0  0  0  0  0  0  0  0  0  0  0  0
   -8.2627  -20.0839    0.0000 C   0  0  0  0  0  0  0  0  0  0  0  0
   -9.6330  -20.6940    0.0000 C   0  0  0  0  0  0  0  0  0  0  0  0
   -9.7898  -22.1858    0.0000 C   0  0  0  0  0  0  0  0  0  0  0  0
   -8.5763  -23.0674    0.0000 C   0  0  0  0  0  0  0  0  0  0  0  0
   -8.4195  -24.5592    0.0000 C   0  0  0  0  0  0  0  0  0  0  0  0
   -9.5342  -25.5629    0.0000 O   0  0  0  0  0  0  0  0  0  0  0  0
   -6.9523  -24.8711    0.0000 N   0  0  0  0  0  0  0  0  0  0  0  0
   -6.2023  -23.5720    0.0000 C   0  0  0  0  0  0  0  0  0  0  0  0
   -7.2060  -22.4573    0.0000 C   0  0  0  0  0  0  0  0  0  0  0  0
   -6.3422  -26.2414    0.0000 C   0  0  0  0  0  0  0  0  0  0  0  0
   -7.2239  -27.4549    0.0000 C   0  0  0  0  0  0  0  0  0  0  0  0
   -6.6138  -28.8252    0.0000 C   0  0  0  0  0  0  0  0  0  0  0  0
   -5.1220  -28.9820    0.0000 C   0  0  0  0  0  0  0  0  0  0  0  0
   -4.5119  -30.3524    0.0000 O   0  0  0  0  0  0  0  0  0  0  0  0
   -4.2403  -27.7685    0.0000 N   0  0  0  0  0  0  0  0  0  0  0  0
   -4.8504  -26.3982    0.0000 C   0  0  0  0  0  0  0  0  0  0  0  0
   -3.9687  -25.1847    0.0000 O   0  0  0  0  0  0  0  0  0  0  0  0
  1  2  1  0
  2  3  1  0
  3  4  2  0
  4  5  1  0
  5  6  1  0
  6  7  2  0
  6  8  1  0
  8  9  2  0
  9 10  1  0
 10 11  1  0
 11 12  2  0
 12 13  1  0
 13 14  2  0
 14 15  1  0
 15 16  2  0
 13 17  1  0
 17 18  3  0
  9 19  1  0
 19 20  1  0
 19 21  1  0
 19 22  1  0
 22 23  1  0
 23 24  2  0
 24 25  1  0
 25 26  1  0
 26 27  1  0
 27 28  1  0
 28 29  1  0
 29 30  1  0
 28 31  1  0
 31 32  1  0
 32 33  1  0
 33 34  1  0
 34 35  1  0
 35 36  1  0
 34 37  1  0
 37 38  2  0
 37 39  1  0
 39 40  1  0
 40 41  1  0
 41 42  2  0
 42 43  1  0
 43 44  2  0
 44 45  1  0
 45 46  1  0
 46 47  2  0
 46 48  1  0
 48 49  1  0
 49 50  1  0
 48 51  1  0
 51 52  1  0
 52 53  1  0
 53 54  1  0
 54 55  2  0
 54 56  1  0
 56 57  1  0
 57 58  2  0
 24  3  1  0
 30 25  1  0
 36 31  1  0
 50 41  1  0
 57 51  1  0
 22  5  2  0
 50 45  2  0
 16  8  1  0
 16 11  1  0
M  END
>  <Ki>  (1) 
nan

>  <IC50>  (1) 
 90500

$$$$
