493971
     RDKit          2D

 39 43  0  0  0  0  0  0  0  0999 V2000
    3.7500   -1.2990    0.0000 C   0  0  0  0  0  0  0  0  0  0  0  0
    3.0000    0.0000    0.0000 O   0  0  0  0  0  0  0  0  0  0  0  0
    1.5000    0.0000    0.0000 C   0  0  0  0  0  0  0  0  0  0  0  0
    0.7500   -1.2990    0.0000 C   0  0  0  0  0  0  0  0  0  0  0  0
   -0.7500   -1.2990    0.0000 C   0  0  0  0  0  0  0  0  0  0  0  0
   -1.5000    0.0000    0.0000 C   0  0  0  0  0  0  0  0  0  0  0  0
   -0.7500    1.2990    0.0000 C   0  0  0  0  0  0  0  0  0  0  0  0
    0.7500    1.2990    0.0000 C   0  0  0  0  0  0  0  0  0  0  0  0
   -3.0000    0.0000    0.0000 C   0  0  0  0  0  0  0  0  0  0  0  0
   -4.5000    0.0000    0.0000 C   0  0  0  0  0  0  0  0  0  0  0  0
   -6.0000    0.0000    0.0000 C   0  0  0  0  0  0  0  0  0  0  0  0
   -6.7500    1.2990    0.0000 C   0  0  0  0  0  0  0  0  0  0  0  0
   -8.2500    1.2990    0.0000 C   0  0  0  0  0  0  0  0  0  0  0  0
   -9.0000    0.0000    0.0000 C   0  0  0  0  0  0  0  0  0  0  0  0
   -8.2500   -1.2990    0.0000 C   0  0  0  0  0  0  0  0  0  0  0  0
   -6.7500   -1.2990    0.0000 C   0  0  0  0  0  0  0  0  0  0  0  0
   -6.0000   -2.5981    0.0000 C   0  0  0  0  0  0  0  0  0  0  0  0
   -9.0000    2.5981    0.0000 C   0  0  0  0  0  0  0  0  0  0  0  0
  -10.4918    2.7549    0.0000 C   0  0  0  0  0  0  0  0  0  0  0  0
  -10.8037    4.2221    0.0000 S   0  0  0  0  0  0  0  0  0  0  0  0
   -9.5046    4.9721    0.0000 C   0  0  0  0  0  0  0  0  0  0  0  0
   -9.3478    6.4639    0.0000 N   0  0  0  0  0  0  0  0  0  0  0  0
   -7.9775    7.0740    0.0000 C   0  0  0  0  0  0  0  0  0  0  0  0
   -6.7640    6.1923    0.0000 O   0  0  0  0  0  0  0  0  0  0  0  0
   -7.8207    8.5658    0.0000 C   0  0  0  0  0  0  0  0  0  0  0  0
   -6.4504    9.1759    0.0000 C   0  0  0  0  0  0  0  0  0  0  0  0
   -6.2936   10.6676    0.0000 C   0  0  0  0  0  0  0  0  0  0  0  0
   -7.5071   11.5493    0.0000 C   0  0  0  0  0  0  0  0  0  0  0  0
   -7.3503   13.0411    0.0000 C   0  0  0  0  0  0  0  0  0  0  0  0
   -5.9800   13.6512    0.0000 N   0  0  0  0  0  0  0  0  0  0  0  0
   -4.7665   12.7695    0.0000 C   0  0  0  0  0  0  0  0  0  0  0  0
   -3.3962   13.3796    0.0000 C   0  0  0  0  0  0  0  0  0  0  0  0
   -3.2394   14.8714    0.0000 N   0  0  0  0  0  0  0  0  0  0  0  0
   -1.8691   15.4815    0.0000 C   0  0  0  0  0  0  0  0  0  0  0  0
   -4.4529   15.7531    0.0000 C   0  0  0  0  0  0  0  0  0  0  0  0
   -5.8232   15.1430    0.0000 C   0  0  0  0  0  0  0  0  0  0  0  0
   -8.8774   10.9392    0.0000 C   0  0  0  0  0  0  0  0  0  0  0  0
   -9.0342    9.4474    0.0000 C   0  0  0  0  0  0  0  0  0  0  0  0
   -8.3899    3.9684    0.0000 N   0  0  0  0  0  0  0  0  0  0  0  0
  1  2  1  0
  2  3  1  0
  3  4  2  0
  4  5  1  0
  5  6  2  0
  6  7  1  0
  7  8  2  0
  6  9  1  0
  9 10  3  0
 10 11  1  0
 11 12  2  0
 12 13  1  0
 13 14  2  0
 14 15  1  0
 15 16  2  0
 16 17  1  0
 13 18  1  0
 18 19  2  0
 19 20  1  0
 20 21  1  0
 21 22  1  0
 22 23  1  0
 23 24  2  0
 23 25  1  0
 25 26  2  0
 26 27  1  0
 27 28  2  0
 28 29  1  0
 29 30  1  0
 30 31  1  0
 31 32  1  0
 32 33  1  0
 33 34  1  0
 33 35  1  0
 35 36  1  0
 28 37  1  0
 37 38  2  0
 21 39  2  0
  8  3  1  0
 16 11  1  0
 39 18  1  0
 38 25  1  0
 36 30  1  0
M  END
>  <Ki>  (1) 
nan

>  <IC50>  (1) 
>100000

$$$$
