494136
     RDKit          2D

 43 47  0  0  0  0  0  0  0  0999 V2000
    4.5000    0.0000    0.0000 F   0  0  0  0  0  0  0  0  0  0  0  0
    3.0000    0.0000    0.0000 C   0  0  0  0  0  0  0  0  0  0  0  0
    3.0000   -1.5000    0.0000 F   0  0  0  0  0  0  0  0  0  0  0  0
    3.0000    1.5000    0.0000 F   0  0  0  0  0  0  0  0  0  0  0  0
    1.5000    0.0000    0.0000 C   0  0  0  0  0  0  0  0  0  0  0  0
    0.7500   -1.2990    0.0000 C   0  0  0  0  0  0  0  0  0  0  0  0
   -0.7500   -1.2990    0.0000 C   0  0  0  0  0  0  0  0  0  0  0  0
   -1.5000    0.0000    0.0000 C   0  0  0  0  0  0  0  0  0  0  0  0
   -0.7500    1.2990    0.0000 C   0  0  0  0  0  0  0  0  0  0  0  0
    0.7500    1.2990    0.0000 C   0  0  0  0  0  0  0  0  0  0  0  0
   -1.5000    2.5981    0.0000 C   0  0  0  0  0  0  0  0  0  0  0  0
   -2.2500    3.8971    0.0000 F   0  0  0  0  0  0  0  0  0  0  0  0
   -0.2010    3.3481    0.0000 F   0  0  0  0  0  0  0  0  0  0  0  0
   -2.7990    1.8481    0.0000 F   0  0  0  0  0  0  0  0  0  0  0  0
   -1.5000   -2.5981    0.0000 C   0  0  0  0  0  0  0  0  0  0  0  0
   -2.2500   -3.8971    0.0000 C   0  0  0  0  0  0  0  0  0  0  0  0
   -3.0000   -5.1962    0.0000 C   0  0  0  0  0  0  0  0  0  0  0  0
   -4.5000   -5.1962    0.0000 C   0  0  0  0  0  0  0  0  0  0  0  0
   -5.2500   -6.4952    0.0000 C   0  0  0  0  0  0  0  0  0  0  0  0
   -4.5000   -7.7942    0.0000 C   0  0  0  0  0  0  0  0  0  0  0  0
   -3.0000   -7.7942    0.0000 C   0  0  0  0  0  0  0  0  0  0  0  0
   -2.2500   -6.4952    0.0000 C   0  0  0  0  0  0  0  0  0  0  0  0
   -2.2500   -9.0933    0.0000 C   0  0  0  0  0  0  0  0  0  0  0  0
   -0.7582   -9.2501    0.0000 C   0  0  0  0  0  0  0  0  0  0  0  0
   -0.4463  -10.7173    0.0000 S   0  0  0  0  0  0  0  0  0  0  0  0
   -1.7454  -11.4673    0.0000 C   0  0  0  0  0  0  0  0  0  0  0  0
   -1.9022  -12.9591    0.0000 N   0  0  0  0  0  0  0  0  0  0  0  0
   -3.2725  -13.5692    0.0000 C   0  0  0  0  0  0  0  0  0  0  0  0
   -4.4860  -12.6875    0.0000 O   0  0  0  0  0  0  0  0  0  0  0  0
   -3.4293  -15.0610    0.0000 C   0  0  0  0  0  0  0  0  0  0  0  0
   -4.7996  -15.6711    0.0000 C   0  0  0  0  0  0  0  0  0  0  0  0
   -4.9564  -17.1628    0.0000 C   0  0  0  0  0  0  0  0  0  0  0  0
   -3.7429  -18.0445    0.0000 C   0  0  0  0  0  0  0  0  0  0  0  0
   -3.8997  -19.5363    0.0000 C   0  0  0  0  0  0  0  0  0  0  0  0
   -5.2700  -20.1464    0.0000 N   0  0  0  0  0  0  0  0  0  0  0  0
   -6.4835  -19.2647    0.0000 C   0  0  0  0  0  0  0  0  0  0  0  0
   -7.8538  -19.8748    0.0000 C   0  0  0  0  0  0  0  0  0  0  0  0
   -8.0106  -21.3666    0.0000 O   0  0  0  0  0  0  0  0  0  0  0  0
   -6.7971  -22.2483    0.0000 C   0  0  0  0  0  0  0  0  0  0  0  0
   -5.4268  -21.6382    0.0000 C   0  0  0  0  0  0  0  0  0  0  0  0
   -2.3726  -17.4344    0.0000 C   0  0  0  0  0  0  0  0  0  0  0  0
   -2.2158  -15.9426    0.0000 C   0  0  0  0  0  0  0  0  0  0  0  0
   -2.8601  -10.4636    0.0000 N   0  0  0  0  0  0  0  0  0  0  0  0
  1  2  1  0
  2  3  1  0
  2  4  1  0
  2  5  1  0
  5  6  2  0
  6  7  1  0
  7  8  2  0
  8  9  1  0
  9 10  2  0
  9 11  1  0
 11 12  1  0
 11 13  1  0
 11 14  1  0
  7 15  1  0
 15 16  3  0
 16 17  1  0
 17 18  2  0
 18 19  1  0
 19 20  2  0
 20 21  1  0
 21 22  2  0
 21 23  1  0
 23 24  2  0
 24 25  1  0
 25 26  1  0
 26 27  1  0
 27 28  1  0
 28 29  2  0
 28 30  1  0
 30 31  2  0
 31 32  1  0
 32 33  2  0
 33 34  1  0
 34 35  1  0
 35 36  1  0
 36 37  1  0
 37 38  1  0
 38 39  1  0
 39 40  1  0
 33 41  1  0
 41 42  2  0
 26 43  2  0
 10  5  1  0
 22 17  1  0
 43 23  1  0
 42 30  1  0
 40 35  1  0
M  END
>  <Ki>  (1) 
nan

>  <IC50>  (1) 
>100000

$$$$
