494156
     RDKit          2D

 47 52  0  0  0  0  0  0  0  0999 V2000
    3.0000    0.0000    0.0000 C   0  0  0  0  0  0  0  0  0  0  0  0
    1.5000    0.0000    0.0000 N   0  0  0  0  0  0  0  0  0  0  0  0
    0.7500   -1.2990    0.0000 C   0  0  0  0  0  0  0  0  0  0  0  0
   -0.7500   -1.2990    0.0000 C   0  0  0  0  0  0  0  0  0  0  0  0
   -1.5000    0.0000    0.0000 N   0  0  0  0  0  0  0  0  0  0  0  0
   -0.7500    1.2990    0.0000 C   0  0  0  0  0  0  0  0  0  0  0  0
    0.7500    1.2990    0.0000 C   0  0  0  0  0  0  0  0  0  0  0  0
   -3.0000    0.0000    0.0000 C   0  0  0  0  0  0  0  0  0  0  0  0
   -3.7500   -1.2990    0.0000 O   0  0  0  0  0  0  0  0  0  0  0  0
   -3.7500    1.2990    0.0000 C   0  0  0  0  0  0  0  0  0  0  0  0
   -3.0000    2.5981    0.0000 C   0  0  0  0  0  0  0  0  0  0  0  0
   -3.7500    3.8971    0.0000 C   0  0  0  0  0  0  0  0  0  0  0  0
   -5.2500    3.8971    0.0000 C   0  0  0  0  0  0  0  0  0  0  0  0
   -6.0000    2.5981    0.0000 C   0  0  0  0  0  0  0  0  0  0  0  0
   -5.2500    1.2990    0.0000 C   0  0  0  0  0  0  0  0  0  0  0  0
   -6.0000    5.1962    0.0000 C   0  0  0  0  0  0  0  0  0  0  0  0
   -7.4918    5.3529    0.0000 C   0  0  0  0  0  0  0  0  0  0  0  0
   -7.8037    6.8202    0.0000 C   0  0  0  0  0  0  0  0  0  0  0  0
   -6.5046    7.5702    0.0000 C   0  0  0  0  0  0  0  0  0  0  0  0
   -5.3899    6.5665    0.0000 O   0  0  0  0  0  0  0  0  0  0  0  0
   -6.3478    9.0619    0.0000 C   0  0  0  0  0  0  0  0  0  0  0  0
   -7.5613    9.9436    0.0000 O   0  0  0  0  0  0  0  0  0  0  0  0
   -4.9775    9.6721    0.0000 N   0  0  0  0  0  0  0  0  0  0  0  0
   -4.8207   11.1638    0.0000 C   0  0  0  0  0  0  0  0  0  0  0  0
   -5.9354   12.1675    0.0000 N   0  0  0  0  0  0  0  0  0  0  0  0
   -5.3253   13.5379    0.0000 C   0  0  0  0  0  0  0  0  0  0  0  0
   -3.8335   13.3811    0.0000 C   0  0  0  0  0  0  0  0  0  0  0  0
   -3.5217   11.9138    0.0000 S   0  0  0  0  0  0  0  0  0  0  0  0
   -6.0753   14.8369    0.0000 C   0  0  0  0  0  0  0  0  0  0  0  0
   -5.3253   16.1359    0.0000 C   0  0  0  0  0  0  0  0  0  0  0  0
   -6.0753   17.4350    0.0000 C   0  0  0  0  0  0  0  0  0  0  0  0
   -7.5753   17.4350    0.0000 C   0  0  0  0  0  0  0  0  0  0  0  0
   -8.3253   16.1359    0.0000 C   0  0  0  0  0  0  0  0  0  0  0  0
   -7.5753   14.8369    0.0000 C   0  0  0  0  0  0  0  0  0  0  0  0
   -9.8253   16.1359    0.0000 C   0  0  0  0  0  0  0  0  0  0  0  0
  -11.3253   16.1359    0.0000 C   0  0  0  0  0  0  0  0  0  0  0  0
  -12.8253   16.1359    0.0000 C   0  0  0  0  0  0  0  0  0  0  0  0
  -13.5753   17.4350    0.0000 C   0  0  0  0  0  0  0  0  0  0  0  0
  -15.0753   17.4350    0.0000 C   0  0  0  0  0  0  0  0  0  0  0  0
  -15.8253   16.1359    0.0000 C   0  0  0  0  0  0  0  0  0  0  0  0
  -15.0753   14.8369    0.0000 C   0  0  0  0  0  0  0  0  0  0  0  0
  -13.5753   14.8369    0.0000 C   0  0  0  0  0  0  0  0  0  0  0  0
  -12.8253   13.5379    0.0000 O   0  0  0  0  0  0  0  0  0  0  0  0
  -13.5753   12.2388    0.0000 C   0  0  0  0  0  0  0  0  0  0  0  0
  -14.3253   10.9398    0.0000 F   0  0  0  0  0  0  0  0  0  0  0  0
  -12.2763   11.4888    0.0000 F   0  0  0  0  0  0  0  0  0  0  0  0
  -14.8744   12.9888    0.0000 F   0  0  0  0  0  0  0  0  0  0  0  0
  1  2  1  0
  2  3  1  0
  3  4  1  0
  4  5  1  0
  5  6  1  0
  6  7  1  0
  5  8  1  0
  8  9  2  0
  8 10  1  0
 10 11  2  0
 11 12  1  0
 12 13  2  0
 13 14  1  0
 14 15  2  0
 13 16  1  0
 16 17  2  0
 17 18  1  0
 18 19  2  0
 19 20  1  0
 19 21  1  0
 21 22  2  0
 21 23  1  0
 23 24  1  0
 24 25  2  0
 25 26  1  0
 26 27  2  0
 27 28  1  0
 26 29  1  0
 29 30  2  0
 30 31  1  0
 31 32  2  0
 32 33  1  0
 33 34  2  0
 33 35  1  0
 35 36  3  0
 36 37  1  0
 37 38  2  0
 38 39  1  0
 39 40  2  0
 40 41  1  0
 41 42  2  0
 42 43  1  0
 43 44  1  0
 44 45  1  0
 44 46  1  0
 44 47  1  0
  7  2  1  0
 15 10  1  0
 20 16  1  0
 28 24  1  0
 34 29  1  0
 42 37  1  0
M  END
>  <Ki>  (1) 
nan

>  <IC50>  (1) 
>100000

$$$$
