50103553
     RDKit          2D

 28 31  0  0  0  0  0  0  0  0999 V2000
   -1.5000   -7.2956    0.0000 C   0  0  0  0  0  0  0  0  0  0  0  0
   -1.5000   -5.7956    0.0000 N   0  0  0  0  0  0  0  0  0  0  0  0
   -0.0511   -5.4073    0.0000 C   0  0  0  0  0  0  0  0  0  0  0  0
    1.0095   -4.3467    0.0000 C   0  0  0  0  0  0  0  0  0  0  0  0
    1.3978   -2.8978    0.0000 C   0  0  0  0  0  0  0  0  0  0  0  0
    2.8957   -2.8193    0.0000 C   0  0  0  0  0  0  0  0  0  0  0  0
    3.7127   -1.5613    0.0000 C   0  0  0  0  0  0  0  0  0  0  0  0
    3.4333   -4.2196    0.0000 N   0  0  0  0  0  0  0  0  0  0  0  0
    2.2676   -5.1636    0.0000 N   0  0  0  0  0  0  0  0  0  0  0  0
    2.3461   -6.6616    0.0000 C   0  0  0  0  0  0  0  0  0  0  0  0
    0.7500   -1.2990    0.0000 C   0  0  0  0  0  0  0  0  0  0  0  0
    1.5000    0.0000    0.0000 C   0  0  0  0  0  0  0  0  0  0  0  0
    0.7500    1.2990    0.0000 N   0  0  0  0  0  0  0  0  0  0  0  0
   -0.7500    1.2990    0.0000 C   0  0  0  0  0  0  0  0  0  0  0  0
   -1.5000    2.5981    0.0000 N   0  0  0  0  0  0  0  0  0  0  0  0
   -1.5000    0.0000    0.0000 C   0  0  0  0  0  0  0  0  0  0  0  0
   -2.9489   -0.3882    0.0000 O   0  0  0  0  0  0  0  0  0  0  0  0
   -4.0095   -1.4489    0.0000 C   0  0  0  0  0  0  0  0  0  0  0  0
   -4.3978   -2.8978    0.0000 C   0  0  0  0  0  0  0  0  0  0  0  0
   -5.8467   -2.5095    0.0000 C   0  0  0  0  0  0  0  0  0  0  0  0
   -6.9073   -3.5702    0.0000 C   0  0  0  0  0  0  0  0  0  0  0  0
   -8.3562   -3.1820    0.0000 F   0  0  0  0  0  0  0  0  0  0  0  0
   -6.5191   -5.0191    0.0000 C   0  0  0  0  0  0  0  0  0  0  0  0
   -5.0702   -5.4073    0.0000 C   0  0  0  0  0  0  0  0  0  0  0  0
   -4.0095   -4.3467    0.0000 C   0  0  0  0  0  0  0  0  0  0  0  0
   -2.9489   -5.4073    0.0000 C   0  0  0  0  0  0  0  0  0  0  0  0
   -3.6989   -6.7064    0.0000 O   0  0  0  0  0  0  0  0  0  0  0  0
   -0.7500   -1.2990    0.0000 C   0  0  0  0  0  0  0  0  0  0  0  0
  1  2  1  0
  2  3  1  0
  3  4  1  0
  4  5  2  0
  5  6  1  0
  6  7  1  0
  6  8  2  0
  8  9  1  0
  9 10  1  0
  5 11  1  0
 11 12  1  0
 12 13  2  0
 13 14  1  0
 14 15  1  0
 14 16  2  0
 16 17  1  0
 17 18  1  0
 18 19  1  0
 19 20  2  0
 20 21  1  0
 21 22  1  0
 21 23  2  0
 23 24  1  0
 24 25  2  0
 25 26  1  0
 26 27  2  0
 16 28  1  0
 26  2  1  0
  9  4  1  0
 28 11  2  0
 25 19  1  0
M  END
>  <Ki>  (1) 
<0.200000

>  <IC50>  (1) 
nan

$$$$
