50103532
     RDKit          2D

 27 30  0  0  0  0  0  0  0  0999 V2000
    3.0000    0.0000    0.0000 N   0  0  0  0  0  0  0  0  0  0  0  0
    1.5000    0.0000    0.0000 C   0  0  0  0  0  0  0  0  0  0  0  0
    0.7500   -1.2990    0.0000 N   0  0  0  0  0  0  0  0  0  0  0  0
   -0.7500   -1.2990    0.0000 C   0  0  0  0  0  0  0  0  0  0  0  0
   -1.5000    0.0000    0.0000 C   0  0  0  0  0  0  0  0  0  0  0  0
   -0.7500    1.2990    0.0000 C   0  0  0  0  0  0  0  0  0  0  0  0
    0.7500    1.2990    0.0000 C   0  0  0  0  0  0  0  0  0  0  0  0
    1.2250    2.7218    0.0000 O   0  0  0  0  0  0  0  0  0  0  0  0
    0.9844    4.2024    0.0000 C   0  0  0  0  0  0  0  0  0  0  0  0
    0.0833    5.4016    0.0000 C   0  0  0  0  0  0  0  0  0  0  0  0
    1.3177    6.2537    0.0000 C   0  0  0  0  0  0  0  0  0  0  0  0
    1.1970    7.7488    0.0000 C   0  0  0  0  0  0  0  0  0  0  0  0
    2.4315    8.6009    0.0000 F   0  0  0  0  0  0  0  0  0  0  0  0
   -0.1581    8.3919    0.0000 C   0  0  0  0  0  0  0  0  0  0  0  0
   -1.3926    7.5398    0.0000 C   0  0  0  0  0  0  0  0  0  0  0  0
   -1.2719    6.0446    0.0000 C   0  0  0  0  0  0  0  0  0  0  0  0
   -2.7707    5.9842    0.0000 O   0  0  0  0  0  0  0  0  0  0  0  0
   -4.0697    5.2342    0.0000 C   0  0  0  0  0  0  0  0  0  0  0  0
   -4.8714    3.9664    0.0000 C   0  0  0  0  0  0  0  0  0  0  0  0
   -4.9921    2.4713    0.0000 C   0  0  0  0  0  0  0  0  0  0  0  0
   -4.4042    1.0913    0.0000 C   0  0  0  0  0  0  0  0  0  0  0  0
   -5.6655    0.2794    0.0000 N   0  0  0  0  0  0  0  0  0  0  0  0
   -5.2831   -1.1710    0.0000 N   0  0  0  0  0  0  0  0  0  0  0  0
   -3.7855   -1.2555    0.0000 C   0  0  0  0  0  0  0  0  0  0  0  0
   -2.9736   -2.5168    0.0000 C   0  0  0  0  0  0  0  0  0  0  0  0
   -2.1617   -3.7781    0.0000 N   0  0  0  0  0  0  0  0  0  0  0  0
   -3.2423    0.1427    0.0000 C   0  0  0  0  0  0  0  0  0  0  0  0
  1  2  1  0
  2  3  2  0
  3  4  1  0
  4  5  2  0
  5  6  1  0
  6  7  2  0
  7  8  1  0
  8  9  1  0
  9 10  1  0
 10 11  2  0
 11 12  1  0
 12 13  1  0
 12 14  2  0
 14 15  1  0
 15 16  2  0
 16 17  1  0
 17 18  1  0
 18 19  1  0
 19 20  1  0
 20 21  1  0
 21 22  2  0
 22 23  1  0
 23 24  1  0
 24 25  1  0
 25 26  3  0
 24 27  2  0
  7  2  1  0
 16 10  1  0
 27 21  1  0
  5 27  1  0
M  END
>  <Ki>  (1) 
 0.220000

>  <IC50>  (1) 
nan

$$$$
