50103667
     RDKit          2D

 32 35  0  0  0  0  0  0  0  0999 V2000
    3.2595   -4.5476    0.0000 C   0  0  0  0  0  0  0  0  0  0  0  0
    3.2595   -3.0476    0.0000 C   0  0  0  0  0  0  0  0  0  0  0  0
    1.8107   -2.6594    0.0000 O   0  0  0  0  0  0  0  0  0  0  0  0
    0.7500   -1.2990    0.0000 C   0  0  0  0  0  0  0  0  0  0  0  0
    1.5000    0.0000    0.0000 C   0  0  0  0  0  0  0  0  0  0  0  0
    0.7500    1.2990    0.0000 C   0  0  0  0  0  0  0  0  0  0  0  0
   -0.7500    1.2990    0.0000 C   0  0  0  0  0  0  0  0  0  0  0  0
   -1.5000    0.0000    0.0000 N   0  0  0  0  0  0  0  0  0  0  0  0
   -0.7500   -1.2990    0.0000 C   0  0  0  0  0  0  0  0  0  0  0  0
   -1.5000   -2.5981    0.0000 N   0  0  0  0  0  0  0  0  0  0  0  0
    1.8107    2.3597    0.0000 C   0  0  0  0  0  0  0  0  0  0  0  0
    0.7500    3.4204    0.0000 C   0  0  0  0  0  0  0  0  0  0  0  0
    1.1382    4.8692    0.0000 C   0  0  0  0  0  0  0  0  0  0  0  0
    2.5871    5.2575    0.0000 C   0  0  0  0  0  0  0  0  0  0  0  0
    3.6478    4.1968    0.0000 C   0  0  0  0  0  0  0  0  0  0  0  0
    3.2595    2.7479    0.0000 C   0  0  0  0  0  0  0  0  0  0  0  0
    4.7084    2.3597    0.0000 C   0  0  0  0  0  0  0  0  0  0  0  0
    5.7691    1.2990    0.0000 N   0  0  0  0  0  0  0  0  0  0  0  0
    7.0681    2.0490    0.0000 C   0  0  0  0  0  0  0  0  0  0  0  0
    6.1573   -0.1499    0.0000 C   0  0  0  0  0  0  0  0  0  0  0  0
    7.6573   -0.1499    0.0000 O   0  0  0  0  0  0  0  0  0  0  0  0
    5.7691   -1.5987    0.0000 C   0  0  0  0  0  0  0  0  0  0  0  0
    7.2180   -1.9870    0.0000 C   0  0  0  0  0  0  0  0  0  0  0  0
    7.6062   -3.4359    0.0000 C   0  0  0  0  0  0  0  0  0  0  0  0
    6.5456   -4.4965    0.0000 C   0  0  0  0  0  0  0  0  0  0  0  0
    6.9338   -5.9454    0.0000 F   0  0  0  0  0  0  0  0  0  0  0  0
    5.0967   -4.1083    0.0000 C   0  0  0  0  0  0  0  0  0  0  0  0
    4.7084   -2.6594    0.0000 C   0  0  0  0  0  0  0  0  0  0  0  0
    0.0776    5.9299    0.0000 S   0  0  0  0  0  0  0  0  0  0  0  0
   -0.9831    6.9906    0.0000 C   0  0  0  0  0  0  0  0  0  0  0  0
   -0.9831    4.8692    0.0000 O   0  0  0  0  0  0  0  0  0  0  0  0
    1.1382    6.9906    0.0000 O   0  0  0  0  0  0  0  0  0  0  0  0
  2  1  1  1
  2  3  1  0
  3  4  1  0
  4  5  1  0
  5  6  2  0
  6  7  1  0
  7  8  2  0
  8  9  1  0
  9 10  1  0
  6 11  1  0
 11 12  2  0
 12 13  1  0
 13 14  2  0
 14 15  1  0
 15 16  2  0
 16 17  1  0
 17 18  1  0
 18 19  1  0
 18 20  1  0
 20 21  2  0
 20 22  1  0
 22 23  2  0
 23 24  1  0
 24 25  2  0
 25 26  1  0
 25 27  1  0
 27 28  2  0
 13 29  1  0
 29 30  1  0
 29 31  2  0
 29 32  2  0
 28  2  1  0
  9  4  2  0
 16 11  1  0
 28 22  1  0
M  END
>  <Ki>  (1) 
 0.400000

>  <IC50>  (1) 
nan

$$$$
