50103650
     RDKit          2D

 29 32  0  0  0  0  0  0  0  0999 V2000
    2.9664   -4.4428    0.0000 C   0  0  0  0  0  0  0  0  0  0  0  0
    3.1472   -2.9537    0.0000 C   0  0  0  0  0  0  0  0  0  0  0  0
    1.7447   -2.4218    0.0000 O   0  0  0  0  0  0  0  0  0  0  0  0
    0.7500   -1.2990    0.0000 C   0  0  0  0  0  0  0  0  0  0  0  0
    1.5000    0.0000    0.0000 C   0  0  0  0  0  0  0  0  0  0  0  0
    0.7500    1.2990    0.0000 C   0  0  0  0  0  0  0  0  0  0  0  0
   -0.7500    1.2990    0.0000 C   0  0  0  0  0  0  0  0  0  0  0  0
   -1.5000    0.0000    0.0000 N   0  0  0  0  0  0  0  0  0  0  0  0
   -0.7500   -1.2990    0.0000 C   0  0  0  0  0  0  0  0  0  0  0  0
   -1.5000   -2.5981    0.0000 N   0  0  0  0  0  0  0  0  0  0  0  0
    1.7447    2.7366    0.0000 C   0  0  0  0  0  0  0  0  0  0  0  0
    3.1472    3.2685    0.0000 C   0  0  0  0  0  0  0  0  0  0  0  0
    4.6363    3.0877    0.0000 C   0  0  0  0  0  0  0  0  0  0  0  0
    5.8707    2.2356    0.0000 C   0  0  0  0  0  0  0  0  0  0  0  0
    6.5678    0.9074    0.0000 C   0  0  0  0  0  0  0  0  0  0  0  0
    6.5678   -0.5926    0.0000 O   0  0  0  0  0  0  0  0  0  0  0  0
    5.8707   -1.9208    0.0000 C   0  0  0  0  0  0  0  0  0  0  0  0
    7.2259   -2.5638    0.0000 C   0  0  0  0  0  0  0  0  0  0  0  0
    7.3466   -4.0590    0.0000 C   0  0  0  0  0  0  0  0  0  0  0  0
    6.1121   -4.9111    0.0000 C   0  0  0  0  0  0  0  0  0  0  0  0
    6.2328   -6.4062    0.0000 F   0  0  0  0  0  0  0  0  0  0  0  0
    4.7570   -4.2680    0.0000 C   0  0  0  0  0  0  0  0  0  0  0  0
    4.6363   -2.7729    0.0000 C   0  0  0  0  0  0  0  0  0  0  0  0
    3.0747    4.7667    0.0000 N   0  0  0  0  0  0  0  0  0  0  0  0
    1.6274    5.1608    0.0000 N   0  0  0  0  0  0  0  0  0  0  0  0
    1.0955    6.5633    0.0000 C   0  0  0  0  0  0  0  0  0  0  0  0
    0.8054    3.9061    0.0000 C   0  0  0  0  0  0  0  0  0  0  0  0
   -0.6928    3.8336    0.0000 C   0  0  0  0  0  0  0  0  0  0  0  0
   -2.1911    3.7611    0.0000 N   0  0  0  0  0  0  0  0  0  0  0  0
  2  1  1  1
  2  3  1  0
  3  4  1  0
  4  5  2  0
  5  6  1  0
  6  7  2  0
  7  8  1  0
  8  9  2  0
  9 10  1  0
  6 11  1  0
 11 12  1  0
 12 13  1  0
 13 14  1  0
 14 15  1  0
 15 16  1  0
 16 17  1  0
 17 18  2  0
 18 19  1  0
 19 20  2  0
 20 21  1  0
 20 22  1  0
 22 23  2  0
 12 24  2  0
 24 25  1  0
 25 26  1  0
 25 27  1  0
 27 28  1  0
 28 29  3  0
 23  2  1  0
  9  4  1  0
 27 11  2  0
 23 17  1  0
M  END
>  <Ki>  (1) 
 0.620000

>  <IC50>  (1) 
nan

$$$$
