744599
     RDKit          2D

 26 29  0  0  0  0  0  0  0  0999 V2000
   -1.1780    3.7237    0.0000 C   0  0  0  0  0  0  0  0  0  0  0  0
   -1.8669    2.3912    0.0000 N   0  0  0  0  0  0  0  0  0  0  0  0
   -3.3254    2.7412    0.0000 C   0  0  0  0  0  0  0  0  0  0  0  0
   -4.7796    2.3732    0.0000 C   0  0  0  0  0  0  0  0  0  0  0  0
   -5.0887    3.8410    0.0000 C   0  0  0  0  0  0  0  0  0  0  0  0
   -3.9721    4.8426    0.0000 Cl  0  0  0  0  0  0  0  0  0  0  0  0
   -6.5144    4.3073    0.0000 C   0  0  0  0  0  0  0  0  0  0  0  0
   -6.8235    5.7751    0.0000 F   0  0  0  0  0  0  0  0  0  0  0  0
   -7.6310    3.3057    0.0000 C   0  0  0  0  0  0  0  0  0  0  0  0
   -7.3219    1.8379    0.0000 C   0  0  0  0  0  0  0  0  0  0  0  0
   -5.8962    1.3717    0.0000 C   0  0  0  0  0  0  0  0  0  0  0  0
   -6.4195   -0.0341    0.0000 O   0  0  0  0  0  0  0  0  0  0  0  0
   -6.2295   -1.5220    0.0000 C   0  0  0  0  0  0  0  0  0  0  0  0
   -5.3698   -2.7512    0.0000 C   0  0  0  0  0  0  0  0  0  0  0  0
   -4.0374   -3.4401    0.0000 N   0  0  0  0  0  0  0  0  0  0  0  0
   -2.5374   -3.4309    0.0000 C   0  0  0  0  0  0  0  0  0  0  0  0
   -2.1694   -4.8851    0.0000 O   0  0  0  0  0  0  0  0  0  0  0  0
   -1.2135   -2.7256    0.0000 C   0  0  0  0  0  0  0  0  0  0  0  0
   -0.0000   -3.6073    0.0000 C   0  0  0  0  0  0  0  0  0  0  0  0
    1.2135   -2.7256    0.0000 N   0  0  0  0  0  0  0  0  0  0  0  0
    0.7500   -1.2990    0.0000 N   0  0  0  0  0  0  0  0  0  0  0  0
    1.5000    0.0000    0.0000 C   0  0  0  0  0  0  0  0  0  0  0  0
    0.7500    1.2990    0.0000 C   0  0  0  0  0  0  0  0  0  0  0  0
   -0.7500    1.2990    0.0000 C   0  0  0  0  0  0  0  0  0  0  0  0
   -1.5000    0.0000    0.0000 N   0  0  0  0  0  0  0  0  0  0  0  0
   -0.7500   -1.2990    0.0000 C   0  0  0  0  0  0  0  0  0  0  0  0
  1  2  1  0
  2  3  1  0
  3  4  1  0
  4  5  2  0
  5  6  1  0
  5  7  1  0
  7  8  1  0
  7  9  2  0
  9 10  1  0
 10 11  2  0
 11 12  1  0
 12 13  1  0
 13 14  1  0
 14 15  1  0
 15 16  1  0
 16 17  2  0
 16 18  1  0
 18 19  1  0
 19 20  2  0
 20 21  1  0
 21 22  1  0
 22 23  2  0
 23 24  1  0
 24 25  2  0
 25 26  1  0
 24  2  1  0
 11  4  1  0
 26 18  2  0
 26 21  1  0
M  END
>  <Ki>  (1) 
nan

>  <IC50>  (1) 
nan

$$$$
