51099778
     RDKit          2D

 79 85  0  0  0  0  0  0  0  0999 V2000
   33.0000  -20.7846    0.0000 C   0  0  0  0  0  0  0  0  0  0  0  0
   32.2500  -19.4856    0.0000 C   0  0  0  0  0  0  0  0  0  0  0  0
   30.7500  -19.4856    0.0000 C   0  0  0  0  0  0  0  0  0  0  0  0
   33.0000  -18.1865    0.0000 O   0  0  0  0  0  0  0  0  0  0  0  0
   32.2500  -16.8875    0.0000 C   0  0  0  0  0  0  0  0  0  0  0  0
   30.7500  -16.8875    0.0000 C   0  0  0  0  0  0  0  0  0  0  0  0
   30.0000  -15.5885    0.0000 C   0  0  0  0  0  0  0  0  0  0  0  0
   28.5000  -15.5885    0.0000 C   0  0  0  0  0  0  0  0  0  0  0  0
   27.7500  -14.2894    0.0000 C   0  0  0  0  0  0  0  0  0  0  0  0
   26.2500  -14.2894    0.0000 C   0  0  0  0  0  0  0  0  0  0  0  0
   25.5000  -15.5885    0.0000 N   0  0  0  0  0  0  0  0  0  0  0  0
   24.0000  -15.5885    0.0000 C   0  0  0  0  0  0  0  0  0  0  0  0
   23.2500  -14.2894    0.0000 C   0  0  0  0  0  0  0  0  0  0  0  0
   24.0000  -12.9904    0.0000 O   0  0  0  0  0  0  0  0  0  0  0  0
   21.7500  -14.2894    0.0000 N   0  0  0  0  0  0  0  0  0  0  0  0
   21.0000  -12.9904    0.0000 C   0  0  0  0  0  0  0  0  0  0  0  0
   19.5000  -12.9904    0.0000 C   0  0  0  0  0  0  0  0  0  0  0  0
   18.7500  -11.6913    0.0000 O   0  0  0  0  0  0  0  0  0  0  0  0
   17.2500  -11.6913    0.0000 C   0  0  0  0  0  0  0  0  0  0  0  0
   16.5000  -10.3923    0.0000 C   0  0  0  0  0  0  0  0  0  0  0  0
   15.0000  -10.3923    0.0000 O   0  0  0  0  0  0  0  0  0  0  0  0
   14.2500   -9.0933    0.0000 C   0  0  0  0  0  0  0  0  0  0  0  0
   12.7500   -9.0933    0.0000 C   0  0  0  0  0  0  0  0  0  0  0  0
   12.0000   -7.7942    0.0000 O   0  0  0  0  0  0  0  0  0  0  0  0
   10.5000   -7.7942    0.0000 C   0  0  0  0  0  0  0  0  0  0  0  0
    9.7500   -6.4952    0.0000 C   0  0  0  0  0  0  0  0  0  0  0  0
    8.2500   -6.4952    0.0000 O   0  0  0  0  0  0  0  0  0  0  0  0
    7.5000   -5.1962    0.0000 C   0  0  0  0  0  0  0  0  0  0  0  0
    6.0000   -5.1962    0.0000 C   0  0  0  0  0  0  0  0  0  0  0  0
    5.2500   -3.8971    0.0000 O   0  0  0  0  0  0  0  0  0  0  0  0
    3.7500   -3.8971    0.0000 C   0  0  0  0  0  0  0  0  0  0  0  0
    3.0000   -2.5981    0.0000 C   0  0  0  0  0  0  0  0  0  0  0  0
    1.5000   -2.5981    0.0000 N   0  0  0  0  0  0  0  0  0  0  0  0
    0.7500   -1.2990    0.0000 C   0  0  0  0  0  0  0  0  0  0  0  0
    1.5000    0.0000    0.0000 C   0  0  0  0  0  0  0  0  0  0  0  0
    0.7500    1.2990    0.0000 C   0  0  0  0  0  0  0  0  0  0  0  0
   -0.7500    1.2990    0.0000 C   0  0  0  0  0  0  0  0  0  0  0  0
   -1.5000    0.0000    0.0000 C   0  0  0  0  0  0  0  0  0  0  0  0
   -2.9672   -0.3119    0.0000 C   0  0  0  0  0  0  0  0  0  0  0  0
   -4.0819    0.6918    0.0000 O   0  0  0  0  0  0  0  0  0  0  0  0
   -3.1240   -1.8037    0.0000 N   0  0  0  0  0  0  0  0  0  0  0  0
   -4.4231   -2.5537    0.0000 C   0  0  0  0  0  0  0  0  0  0  0  0
   -5.7221   -1.8037    0.0000 C   0  0  0  0  0  0  0  0  0  0  0  0
   -7.0211   -2.5537    0.0000 C   0  0  0  0  0  0  0  0  0  0  0  0
   -7.0211   -4.0537    0.0000 C   0  0  0  0  0  0  0  0  0  0  0  0
   -8.3202   -4.8037    0.0000 O   0  0  0  0  0  0  0  0  0  0  0  0
   -5.7221   -4.8037    0.0000 N   0  0  0  0  0  0  0  0  0  0  0  0
   -4.4231   -4.0537    0.0000 C   0  0  0  0  0  0  0  0  0  0  0  0
   -3.1240   -4.8037    0.0000 O   0  0  0  0  0  0  0  0  0  0  0  0
   -1.7537   -2.4138    0.0000 C   0  0  0  0  0  0  0  0  0  0  0  0
   -1.4418   -3.8810    0.0000 O   0  0  0  0  0  0  0  0  0  0  0  0
   -0.7500   -1.2990    0.0000 C   0  0  0  0  0  0  0  0  0  0  0  0
   26.2500  -16.8875    0.0000 C   0  0  0  0  0  0  0  0  0  0  0  0
   27.7500  -16.8875    0.0000 C   0  0  0  0  0  0  0  0  0  0  0  0
   30.7500  -14.2894    0.0000 C   0  0  0  0  0  0  0  0  0  0  0  0
   30.0000  -12.9904    0.0000 C   0  0  0  0  0  0  0  0  0  0  0  0
   32.2500  -14.2894    0.0000 C   0  0  0  0  0  0  0  0  0  0  0  0
   33.0000  -15.5885    0.0000 C   0  0  0  0  0  0  0  0  0  0  0  0
   34.5000  -15.5885    0.0000 N   0  0  0  0  0  0  0  0  0  0  0  0
   35.2500  -14.2894    0.0000 C   0  0  0  0  0  0  0  0  0  0  0  0
   36.7500  -14.2894    0.0000 N   0  0  0  0  0  0  0  0  0  0  0  0
   37.5000  -12.9904    0.0000 C   0  0  0  0  0  0  0  0  0  0  0  0
   36.7500  -11.6913    0.0000 C   0  0  0  0  0  0  0  0  0  0  0  0
   37.5000  -10.3923    0.0000 Cl  0  0  0  0  0  0  0  0  0  0  0  0
   35.2500  -11.6913    0.0000 C   0  0  0  0  0  0  0  0  0  0  0  0
   34.5000  -10.3923    0.0000 N   0  0  0  0  0  0  0  0  0  0  0  0
   33.0000  -10.3923    0.0000 C   0  0  0  0  0  0  0  0  0  0  0  0
   32.2500  -11.6913    0.0000 C   0  0  0  0  0  0  0  0  0  0  0  0
   30.7500  -11.6913    0.0000 C   0  0  0  0  0  0  0  0  0  0  0  0
   30.0000  -10.3923    0.0000 C   0  0  0  0  0  0  0  0  0  0  0  0
   30.7500   -9.0933    0.0000 C   0  0  0  0  0  0  0  0  0  0  0  0
   32.2500   -9.0933    0.0000 C   0  0  0  0  0  0  0  0  0  0  0  0
   33.0000   -7.7942    0.0000 S   0  0  0  0  0  0  0  0  0  0  0  0
   34.2990   -8.5442    0.0000 O   0  0  0  0  0  0  0  0  0  0  0  0
   31.7010   -7.0442    0.0000 O   0  0  0  0  0  0  0  0  0  0  0  0
   33.7500   -6.4952    0.0000 C   0  0  0  0  0  0  0  0  0  0  0  0
   35.2500   -6.4952    0.0000 C   0  0  0  0  0  0  0  0  0  0  0  0
   33.0000   -5.1962    0.0000 C   0  0  0  0  0  0  0  0  0  0  0  0
   34.5000  -12.9904    0.0000 N   0  0  0  0  0  0  0  0  0  0  0  0
  1  2  1  0
  2  3  1  0
  2  4  1  0
  4  5  1  0
  5  6  2  0
  6  7  1  0
  7  8  1  0
  8  9  1  0
  9 10  1  0
 10 11  1  0
 11 12  1  0
 12 13  1  0
 13 14  2  0
 13 15  1  0
 15 16  1  0
 16 17  1  0
 17 18  1  0
 18 19  1  0
 19 20  1  0
 20 21  1  0
 21 22  1  0
 22 23  1  0
 23 24  1  0
 24 25  1  0
 25 26  1  0
 26 27  1  0
 27 28  1  0
 28 29  1  0
 29 30  1  0
 30 31  1  0
 31 32  1  0
 32 33  1  0
 33 34  1  0
 34 35  2  0
 35 36  1  0
 36 37  2  0
 37 38  1  0
 38 39  1  0
 39 40  2  0
 39 41  1  0
 41 42  1  0
 42 43  1  0
 43 44  1  0
 44 45  1  0
 45 46  2  0
 45 47  1  0
 47 48  1  0
 48 49  2  0
 41 50  1  0
 50 51  2  0
 50 52  1  0
 11 53  1  0
 53 54  1  0
  7 55  2  0
 55 56  1  0
 55 57  1  0
 57 58  2  0
 58 59  1  0
 59 60  1  0
 60 61  2  0
 61 62  1  0
 62 63  2  0
 63 64  1  0
 63 65  1  0
 65 66  1  0
 66 67  1  0
 67 68  2  0
 68 69  1  0
 69 70  2  0
 70 71  1  0
 71 72  2  0
 72 73  1  0
 73 74  2  0
 73 75  2  0
 73 76  1  0
 76 77  1  0
 76 78  1  0
 65 79  2  0
 58  5  1  0
 79 60  1  0
 54  8  1  0
 72 67  1  0
 52 34  1  0
 52 38  2  0
 48 42  1  0
M  END
>  <Ki>  (1) 
nan

>  <IC50>  (1) 
nan

$$$$
