893152
     RDKit          2D

 25 28  0  0  0  0  0  0  0  0999 V2000
    1.9092   -4.9667    0.0000 C   0  0  0  0  0  0  0  0  0  0  0  0
    0.6148   -4.2087    0.0000 C   0  0  0  0  0  0  0  0  0  0  0  0
    1.0410   -2.7705    0.0000 O   0  0  0  0  0  0  0  0  0  0  0  0
    0.7500   -1.2990    0.0000 C   0  0  0  0  0  0  0  0  0  0  0  0
    1.5000    0.0000    0.0000 C   0  0  0  0  0  0  0  0  0  0  0  0
    0.7500    1.2990    0.0000 C   0  0  0  0  0  0  0  0  0  0  0  0
   -0.7500    1.2990    0.0000 C   0  0  0  0  0  0  0  0  0  0  0  0
   -1.7537    2.4138    0.0000 N   0  0  0  0  0  0  0  0  0  0  0  0
   -3.1240    1.8037    0.0000 C   0  0  0  0  0  0  0  0  0  0  0  0
   -2.9672    0.3119    0.0000 C   0  0  0  0  0  0  0  0  0  0  0  0
   -4.3364   -0.4402    0.0000 C   0  0  0  0  0  0  0  0  0  0  0  0
   -5.4117    0.6055    0.0000 O   0  0  0  0  0  0  0  0  0  0  0  0
   -5.0944   -1.7346    0.0000 N   0  0  0  0  0  0  0  0  0  0  0  0
   -5.1640   -3.2330    0.0000 C   0  0  0  0  0  0  0  0  0  0  0  0
   -4.5293   -4.5921    0.0000 C   0  0  0  0  0  0  0  0  0  0  0  0
   -3.3357   -5.5006    0.0000 O   0  0  0  0  0  0  0  0  0  0  0  0
   -1.8567   -5.7503    0.0000 C   0  0  0  0  0  0  0  0  0  0  0  0
   -2.1658   -7.2181    0.0000 C   0  0  0  0  0  0  0  0  0  0  0  0
   -1.0491   -8.2197    0.0000 C   0  0  0  0  0  0  0  0  0  0  0  0
    0.3766   -7.7535    0.0000 C   0  0  0  0  0  0  0  0  0  0  0  0
    1.4932   -8.7551    0.0000 F   0  0  0  0  0  0  0  0  0  0  0  0
    0.6857   -6.2857    0.0000 C   0  0  0  0  0  0  0  0  0  0  0  0
   -0.4310   -5.2841    0.0000 C   0  0  0  0  0  0  0  0  0  0  0  0
   -1.5000    0.0000    0.0000 N   0  0  0  0  0  0  0  0  0  0  0  0
   -0.7500   -1.2990    0.0000 N   0  0  0  0  0  0  0  0  0  0  0  0
  1  2  1  0
  2  3  1  0
  3  4  1  0
  4  5  1  0
  5  6  2  0
  6  7  1  0
  7  8  2  0
  8  9  1  0
  9 10  2  0
 10 11  1  0
 11 12  2  0
 11 13  1  0
 13 14  1  0
 14 15  1  0
 15 16  1  0
 16 17  1  0
 17 18  2  0
 18 19  1  0
 19 20  2  0
 20 21  1  0
 20 22  1  0
 22 23  2  0
 10 24  1  0
 24 25  1  0
 23  2  1  0
 25  4  2  0
 24  7  1  0
 23 17  1  0
M  END
>  <Ki>  (1) 
nan

>  <IC50>  (1) 
nan

$$$$
