51234567
     RDKit          2D

 67 77  0  0  0  0  0  0  0  0999 V2000
    6.4640   -1.9952    0.0000 C   0  0  0  0  0  0  0  0  0  0  0  0
    4.9655   -1.9279    0.0000 O   0  0  0  0  0  0  0  0  0  0  0  0
    4.1580   -3.1920    0.0000 C   0  0  0  0  0  0  0  0  0  0  0  0
    4.8489   -4.5234    0.0000 C   0  0  0  0  0  0  0  0  0  0  0  0
    4.0414   -5.7874    0.0000 C   0  0  0  0  0  0  0  0  0  0  0  0
    2.5382   -5.8249    0.0000 C   0  0  0  0  0  0  0  0  0  0  0  0
    3.2490   -4.5040    0.0000 O   0  0  0  0  0  0  0  0  0  0  0  0
    2.6595   -3.1247    0.0000 C   0  0  0  0  0  0  0  0  0  0  0  0
    3.6464   -1.9951    0.0000 C   0  0  0  0  0  0  0  0  0  0  0  0
    1.2135   -2.7256    0.0000 N   0  0  0  0  0  0  0  0  0  0  0  0
    0.7500   -1.2990    0.0000 C   0  0  0  0  0  0  0  0  0  0  0  0
    1.5000    0.0000    0.0000 C   0  0  0  0  0  0  0  0  0  0  0  0
    0.7500    1.2990    0.0000 C   0  0  0  0  0  0  0  0  0  0  0  0
   -0.7500    1.2990    0.0000 C   0  0  0  0  0  0  0  0  0  0  0  0
   -1.5000    0.0000    0.0000 C   0  0  0  0  0  0  0  0  0  0  0  0
   -0.7500   -1.2990    0.0000 C   0  0  0  0  0  0  0  0  0  0  0  0
   -1.2135   -2.7256    0.0000 C   0  0  0  0  0  0  0  0  0  0  0  0
   -2.5518   -3.5691    0.0000 C   0  0  0  0  0  0  0  0  0  0  0  0
   -3.9561   -3.0421    0.0000 C   0  0  0  0  0  0  0  0  0  0  0  0
   -4.8913   -4.2148    0.0000 N   0  0  0  0  0  0  0  0  0  0  0  0
   -4.0650   -5.4667    0.0000 C   0  0  0  0  0  0  0  0  0  0  0  0
   -4.5921   -6.8710    0.0000 O   0  0  0  0  0  0  0  0  0  0  0  0
   -2.6191   -5.0676    0.0000 C   0  0  0  0  0  0  0  0  0  0  0  0
   -1.3550   -5.8751    0.0000 C   0  0  0  0  0  0  0  0  0  0  0  0
   -1.0212   -7.3375    0.0000 C   0  0  0  0  0  0  0  0  0  0  0  0
   -1.8846   -8.5641    0.0000 C   0  0  0  0  0  0  0  0  0  0  0  0
   -1.2541   -9.9251    0.0000 C   0  0  0  0  0  0  0  0  0  0  0  0
    0.2399  -10.0596    0.0000 C   0  0  0  0  0  0  0  0  0  0  0  0
    1.1033   -8.8330    0.0000 C   0  0  0  0  0  0  0  0  0  0  0  0
    0.4728   -7.4720    0.0000 C   0  0  0  0  0  0  0  0  0  0  0  0
    1.0623   -6.0927    0.0000 N   0  0  0  0  0  0  0  0  0  0  0  0
   -0.0673   -5.1058    0.0000 C   0  0  0  0  0  0  0  0  0  0  0  0
   -0.0000   -3.6073    0.0000 C   0  0  0  0  0  0  0  0  0  0  0  0
    6.3474   -4.5907    0.0000 N   0  0  0  0  0  0  0  0  0  0  0  0
    7.0384   -5.9220    0.0000 C   0  0  0  0  0  0  0  0  0  0  0  0
    7.1549   -3.3266    0.0000 C   0  0  0  0  0  0  0  0  0  0  0  0
    8.6534   -3.3939    0.0000 C   0  0  0  0  0  0  0  0  0  0  0  0
    9.4610   -2.1298    0.0000 O   0  0  0  0  0  0  0  0  0  0  0  0
   10.9594   -2.1971    0.0000 C   0  0  0  0  0  0  0  0  0  0  0  0
   11.7670   -0.9330    0.0000 C   0  0  0  0  0  0  0  0  0  0  0  0
   13.2655   -1.0003    0.0000 O   0  0  0  0  0  0  0  0  0  0  0  0
   14.0730    0.2638    0.0000 C   0  0  0  0  0  0  0  0  0  0  0  0
   15.5715    0.1965    0.0000 C   0  0  0  0  0  0  0  0  0  0  0  0
   16.3790    1.4606    0.0000 O   0  0  0  0  0  0  0  0  0  0  0  0
   17.8775    1.3933    0.0000 C   0  0  0  0  0  0  0  0  0  0  0  0
   18.6850    2.6574    0.0000 C   0  0  0  0  0  0  0  0  0  0  0  0
   20.1835    2.5901    0.0000 N   0  0  0  0  0  0  0  0  0  0  0  0
   20.9910    3.8541    0.0000 C   0  0  0  0  0  0  0  0  0  0  0  0
   20.3001    5.1855    0.0000 O   0  0  0  0  0  0  0  0  0  0  0  0
   22.4895    3.7868    0.0000 C   0  0  0  0  0  0  0  0  0  0  0  0
   23.2970    5.0509    0.0000 C   0  0  0  0  0  0  0  0  0  0  0  0
   24.7955    4.9836    0.0000 C   0  0  0  0  0  0  0  0  0  0  0  0
   25.7308    6.1564    0.0000 N   0  0  0  0  0  4  0  0  0  0  0  0
   27.1351    5.6293    0.0000 C   0  0  0  0  0  0  0  0  0  0  0  0
   27.0678    4.1308    0.0000 C   0  0  0  0  0  0  0  0  0  0  0  0
   25.6219    3.7318    0.0000 C   0  0  0  0  0  0  0  0  0  0  0  0
   28.2937    6.5820    0.0000 C   0  0  0  0  0  0  0  0  0  0  0  0
   28.0480    8.0617    0.0000 C   0  0  0  0  0  0  0  0  0  0  0  0
   28.9833    9.2345    0.0000 C   0  0  0  0  0  0  0  0  0  0  0  0
   30.4817    9.1672    0.0000 C   0  0  0  0  0  0  0  0  0  0  0  0
   28.1569   10.4863    0.0000 C   0  0  0  0  0  0  0  0  0  0  0  0
   26.7110   10.0873    0.0000 C   0  0  0  0  0  0  0  0  0  0  0  0
   25.5382   11.0225    0.0000 C   0  0  0  0  0  0  0  0  0  0  0  0
   26.6437    8.5888    0.0000 N   0  0  0  0  0  0  0  0  0  0  0  0
   25.4850    7.6361    0.0000 B   0  0  0  0  0  4  0  0  0  0  0  0
   24.0705    7.1372    0.0000 F   0  0  0  0  0  0  0  0  0  0  0  0
   24.7480    8.9426    0.0000 F   0  0  0  0  0  0  0  0  0  0  0  0
  1  2  1  0
  3  2  1  6
  3  4  1  0
  4  5  1  0
  6  5  1  6
  6  7  1  0
  7  8  1  0
  8  9  1  1
  8 10  1  0
 10 11  1  0
 11 12  2  0
 12 13  1  0
 13 14  2  0
 14 15  1  0
 15 16  2  0
 16 17  1  0
 17 18  2  0
 18 19  1  0
 19 20  1  0
 20 21  1  0
 21 22  2  0
 21 23  1  0
 23 24  2  0
 24 25  1  0
 25 26  2  0
 26 27  1  0
 27 28  2  0
 28 29  1  0
 29 30  2  0
 30 31  1  0
 31 32  1  0
 32 33  2  0
  4 34  1  6
 34 35  1  0
 34 36  1  0
 36 37  1  0
 37 38  1  0
 38 39  1  0
 39 40  1  0
 40 41  1  0
 41 42  1  0
 42 43  1  0
 43 44  1  0
 44 45  1  0
 45 46  1  0
 46 47  1  0
 47 48  1  0
 48 49  2  0
 48 50  1  0
 50 51  1  0
 51 52  1  0
 52 53  2  0
 53 54  1  0
 54 55  1  0
 55 56  2  0
 54 57  2  0
 57 58  1  0
 58 59  2  0
 59 60  1  0
 59 61  1  0
 61 62  2  0
 62 63  1  0
 62 64  1  0
 64 65  1  0
 65 66  1  0
 65 67  1  0
  8  3  1  0
 33 10  1  0
 56 52  1  0
 64 58  1  0
 31  6  1  0
 65 53  1  0
 16 11  1  0
 33 17  1  0
 23 18  1  0
 32 24  1  0
 30 25  1  0
M  CHG  2  53   1  65  -1
M  END
>  <Ki>  (1) 
nan

>  <IC50>  (1) 
nan

$$$$
