51234672
     RDKit          2D

 66 76  0  0  0  0  0  0  0  0999 V2000
    6.4640   -1.9952    0.0000 C   0  0  0  0  0  0  0  0  0  0  0  0
    4.9655   -1.9279    0.0000 O   0  0  0  0  0  0  0  0  0  0  0  0
    4.1580   -3.1920    0.0000 C   0  0  0  0  0  0  0  0  0  0  0  0
    4.8489   -4.5234    0.0000 C   0  0  0  0  0  0  0  0  0  0  0  0
    4.0414   -5.7874    0.0000 C   0  0  0  0  0  0  0  0  0  0  0  0
    2.5382   -5.8249    0.0000 C   0  0  0  0  0  0  0  0  0  0  0  0
    3.2490   -4.5040    0.0000 O   0  0  0  0  0  0  0  0  0  0  0  0
    2.6595   -3.1247    0.0000 C   0  0  0  0  0  0  0  0  0  0  0  0
    3.6464   -1.9951    0.0000 C   0  0  0  0  0  0  0  0  0  0  0  0
    1.2135   -2.7256    0.0000 N   0  0  0  0  0  0  0  0  0  0  0  0
    0.7500   -1.2990    0.0000 C   0  0  0  0  0  0  0  0  0  0  0  0
    1.5000    0.0000    0.0000 C   0  0  0  0  0  0  0  0  0  0  0  0
    0.7500    1.2990    0.0000 C   0  0  0  0  0  0  0  0  0  0  0  0
   -0.7500    1.2990    0.0000 C   0  0  0  0  0  0  0  0  0  0  0  0
   -1.5000    0.0000    0.0000 C   0  0  0  0  0  0  0  0  0  0  0  0
   -0.7500   -1.2990    0.0000 C   0  0  0  0  0  0  0  0  0  0  0  0
   -1.2135   -2.7256    0.0000 C   0  0  0  0  0  0  0  0  0  0  0  0
   -2.5518   -3.5691    0.0000 C   0  0  0  0  0  0  0  0  0  0  0  0
   -3.9561   -3.0421    0.0000 C   0  0  0  0  0  0  0  0  0  0  0  0
   -4.8913   -4.2148    0.0000 N   0  0  0  0  0  0  0  0  0  0  0  0
   -4.0650   -5.4667    0.0000 C   0  0  0  0  0  0  0  0  0  0  0  0
   -4.5921   -6.8710    0.0000 O   0  0  0  0  0  0  0  0  0  0  0  0
   -2.6191   -5.0676    0.0000 C   0  0  0  0  0  0  0  0  0  0  0  0
   -1.3550   -5.8751    0.0000 C   0  0  0  0  0  0  0  0  0  0  0  0
   -1.0212   -7.3375    0.0000 C   0  0  0  0  0  0  0  0  0  0  0  0
   -1.8846   -8.5641    0.0000 C   0  0  0  0  0  0  0  0  0  0  0  0
   -1.2541   -9.9251    0.0000 C   0  0  0  0  0  0  0  0  0  0  0  0
    0.2399  -10.0596    0.0000 C   0  0  0  0  0  0  0  0  0  0  0  0
    1.1033   -8.8330    0.0000 C   0  0  0  0  0  0  0  0  0  0  0  0
    0.4728   -7.4720    0.0000 C   0  0  0  0  0  0  0  0  0  0  0  0
    1.0623   -6.0927    0.0000 N   0  0  0  0  0  0  0  0  0  0  0  0
   -0.0673   -5.1058    0.0000 C   0  0  0  0  0  0  0  0  0  0  0  0
   -0.0000   -3.6073    0.0000 C   0  0  0  0  0  0  0  0  0  0  0  0
    6.3474   -4.5907    0.0000 N   0  0  0  0  0  0  0  0  0  0  0  0
    7.0384   -5.9220    0.0000 C   0  0  0  0  0  0  0  0  0  0  0  0
    8.5369   -5.9893    0.0000 C   0  0  0  0  0  0  0  0  0  0  0  0
    9.2278   -7.3207    0.0000 O   0  0  0  0  0  0  0  0  0  0  0  0
   10.7263   -7.3880    0.0000 C   0  0  0  0  0  0  0  0  0  0  0  0
   11.4173   -8.7194    0.0000 C   0  0  0  0  0  0  0  0  0  0  0  0
   12.9158   -8.7867    0.0000 O   0  0  0  0  0  0  0  0  0  0  0  0
   13.6067  -10.1181    0.0000 C   0  0  0  0  0  0  0  0  0  0  0  0
   15.1052  -10.1854    0.0000 C   0  0  0  0  0  0  0  0  0  0  0  0
   15.7962  -11.5167    0.0000 O   0  0  0  0  0  0  0  0  0  0  0  0
   17.2947  -11.5840    0.0000 C   0  0  0  0  0  0  0  0  0  0  0  0
   17.9856  -12.9154    0.0000 C   0  0  0  0  0  0  0  0  0  0  0  0
   19.4841  -12.9827    0.0000 N   0  0  0  0  0  0  0  0  0  0  0  0
   20.1751  -14.3141    0.0000 C   0  0  0  0  0  0  0  0  0  0  0  0
   19.3676  -15.5782    0.0000 O   0  0  0  0  0  0  0  0  0  0  0  0
   21.6736  -14.3814    0.0000 C   0  0  0  0  0  0  0  0  0  0  0  0
   22.3645  -15.7128    0.0000 C   0  0  0  0  0  0  0  0  0  0  0  0
   23.8630  -15.7801    0.0000 C   0  0  0  0  0  0  0  0  0  0  0  0
   24.6894  -17.0319    0.0000 N   0  0  0  0  0  4  0  0  0  0  0  0
   26.1353  -16.6329    0.0000 C   0  0  0  0  0  0  0  0  0  0  0  0
   26.2026  -15.1344    0.0000 C   0  0  0  0  0  0  0  0  0  0  0  0
   24.7983  -14.6073    0.0000 C   0  0  0  0  0  0  0  0  0  0  0  0
   27.2039  -17.6856    0.0000 C   0  0  0  0  0  0  0  0  0  0  0  0
   26.8265  -19.1373    0.0000 C   0  0  0  0  0  0  0  0  0  0  0  0
   27.6529  -20.3892    0.0000 C   0  0  0  0  0  0  0  0  0  0  0  0
   29.1513  -20.4565    0.0000 C   0  0  0  0  0  0  0  0  0  0  0  0
   26.7176  -21.5619    0.0000 C   0  0  0  0  0  0  0  0  0  0  0  0
   25.3133  -21.0349    0.0000 C   0  0  0  0  0  0  0  0  0  0  0  0
   24.0614  -21.8612    0.0000 C   0  0  0  0  0  0  0  0  0  0  0  0
   25.3806  -19.5364    0.0000 N   0  0  0  0  0  0  0  0  0  0  0  0
   24.3120  -18.4837    0.0000 B   0  0  0  0  0  4  0  0  0  0  0  0
   22.9478  -17.8599    0.0000 F   0  0  0  0  0  0  0  0  0  0  0  0
   23.4609  -19.7188    0.0000 F   0  0  0  0  0  0  0  0  0  0  0  0
  1  2  1  0
  3  2  1  6
  3  4  1  0
  4  5  1  0
  6  5  1  6
  6  7  1  0
  7  8  1  0
  8  9  1  1
  8 10  1  0
 10 11  1  0
 11 12  2  0
 12 13  1  0
 13 14  2  0
 14 15  1  0
 15 16  2  0
 16 17  1  0
 17 18  2  0
 18 19  1  0
 19 20  1  0
 20 21  1  0
 21 22  2  0
 21 23  1  0
 23 24  2  0
 24 25  1  0
 25 26  2  0
 26 27  1  0
 27 28  2  0
 28 29  1  0
 29 30  2  0
 30 31  1  0
 31 32  1  0
 32 33  2  0
  4 34  1  6
 34 35  1  0
 35 36  1  0
 36 37  1  0
 37 38  1  0
 38 39  1  0
 39 40  1  0
 40 41  1  0
 41 42  1  0
 42 43  1  0
 43 44  1  0
 44 45  1  0
 45 46  1  0
 46 47  1  0
 47 48  2  0
 47 49  1  0
 49 50  1  0
 50 51  1  0
 51 52  2  0
 52 53  1  0
 53 54  1  0
 54 55  2  0
 53 56  2  0
 56 57  1  0
 57 58  2  0
 58 59  1  0
 58 60  1  0
 60 61  2  0
 61 62  1  0
 61 63  1  0
 63 64  1  0
 64 65  1  0
 64 66  1  0
  8  3  1  0
 33 10  1  0
 55 51  1  0
 63 57  1  0
 31  6  1  0
 64 52  1  0
 16 11  1  0
 33 17  1  0
 23 18  1  0
 32 24  1  0
 30 25  1  0
M  CHG  2  52   1  64  -1
M  END
>  <Ki>  (1) 
nan

>  <IC50>  (1) 
nan

$$$$
