50895541
     RDKit          2D

 26 30  0  0  0  0  0  0  0  0999 V2000
   -5.7949   -9.0313    0.0000 O   0  0  0  0  0  0  0  0  0  0  0  0
   -5.6381   -7.5395    0.0000 C   0  0  0  0  0  0  0  0  0  0  0  0
   -6.8516   -6.6578    0.0000 C   0  0  0  0  0  0  0  0  0  0  0  0
   -6.6948   -5.1660    0.0000 C   0  0  0  0  0  0  0  0  0  0  0  0
   -5.3245   -4.5559    0.0000 C   0  0  0  0  0  0  0  0  0  0  0  0
   -4.1110   -5.4376    0.0000 C   0  0  0  0  0  0  0  0  0  0  0  0
   -4.2677   -6.9294    0.0000 C   0  0  0  0  0  0  0  0  0  0  0  0
   -2.7406   -4.8275    0.0000 C   0  0  0  0  0  0  0  0  0  0  0  0
   -1.5271   -5.7092    0.0000 N   0  0  0  0  0  0  0  0  0  0  0  0
   -0.1568   -5.0991    0.0000 C   0  0  0  0  0  0  0  0  0  0  0  0
    1.0567   -5.9808    0.0000 N   0  0  0  0  0  0  0  0  0  0  0  0
    0.8999   -7.4725    0.0000 C   0  0  0  0  0  0  0  0  0  0  0  0
    2.1135   -8.3542    0.0000 C   0  0  0  0  0  0  0  0  0  0  0  0
    3.4838   -7.7441    0.0000 O   0  0  0  0  0  0  0  0  0  0  0  0
    3.6406   -6.2523    0.0000 C   0  0  0  0  0  0  0  0  0  0  0  0
    2.4271   -5.3707    0.0000 C   0  0  0  0  0  0  0  0  0  0  0  0
    0.0000   -3.6073    0.0000 C   0  0  0  0  0  0  0  0  0  0  0  0
    1.2135   -2.7256    0.0000 O   0  0  0  0  0  0  0  0  0  0  0  0
    0.7500   -1.2990    0.0000 C   0  0  0  0  0  0  0  0  0  0  0  0
    1.5000    0.0000    0.0000 N   0  0  0  0  0  0  0  0  0  0  0  0
    0.7500    1.2990    0.0000 C   0  0  0  0  0  0  0  0  0  0  0  0
   -0.7500    1.2990    0.0000 C   0  0  0  0  0  0  0  0  0  0  0  0
   -1.5000    0.0000    0.0000 C   0  0  0  0  0  0  0  0  0  0  0  0
   -0.7500   -1.2990    0.0000 C   0  0  0  0  0  0  0  0  0  0  0  0
   -1.2135   -2.7256    0.0000 C   0  0  0  0  0  0  0  0  0  0  0  0
   -2.5838   -3.3357    0.0000 N   0  0  0  0  0  0  0  0  0  0  0  0
  1  2  1  0
  2  3  2  0
  3  4  1  0
  4  5  2  0
  5  6  1  0
  6  7  2  0
  6  8  1  0
  8  9  2  0
  9 10  1  0
 10 11  1  0
 11 12  1  0
 12 13  1  0
 13 14  1  0
 14 15  1  0
 15 16  1  0
 10 17  2  0
 17 18  1  0
 18 19  1  0
 19 20  2  0
 20 21  1  0
 21 22  2  0
 22 23  1  0
 23 24  2  0
 24 25  1  0
 25 26  2  0
  7  2  1  0
 26  8  1  0
 16 11  1  0
 25 17  1  0
 24 19  1  0
M  END
>  <Ki>  (1) 
nan

>  <IC50>  (1) 
nan

$$$$
