325761
     RDKit          2D

 25 28  0  0  0  0  0  0  0  0999 V2000
    3.7500   -1.2990    0.0000 C   0  0  0  0  0  0  0  0  0  0  0  0
    3.0000    0.0000    0.0000 O   0  0  0  0  0  0  0  0  0  0  0  0
    1.5000    0.0000    0.0000 C   0  0  0  0  0  0  0  0  0  0  0  0
    0.7500   -1.2990    0.0000 C   0  0  0  0  0  0  0  0  0  0  0  0
   -0.7500   -1.2990    0.0000 C   0  0  0  0  0  0  0  0  0  0  0  0
   -1.5000    0.0000    0.0000 C   0  0  0  0  0  0  0  0  0  0  0  0
   -3.0000    0.0000    0.0000 C   0  0  0  0  0  0  0  0  0  0  0  0
   -3.7500   -1.2990    0.0000 O   0  0  0  0  0  0  0  0  0  0  0  0
   -3.7500    1.2990    0.0000 C   0  0  0  0  0  0  0  0  0  0  0  0
   -3.0000    2.5981    0.0000 C   0  0  0  0  0  0  0  0  0  0  0  0
   -4.0037    3.7128    0.0000 N   0  0  0  0  0  0  0  0  0  0  0  0
   -5.3740    3.1027    0.0000 C   0  0  0  0  0  0  0  0  0  0  0  0
   -6.7443    3.7128    0.0000 C   0  0  0  0  0  0  0  0  0  0  0  0
   -6.9011    5.2046    0.0000 N   0  0  0  0  0  0  0  0  0  0  0  0
   -7.9579    2.8311    0.0000 C   0  0  0  0  0  0  0  0  0  0  0  0
   -7.8011    1.3393    0.0000 C   0  0  0  0  0  0  0  0  0  0  0  0
   -6.4307    0.7292    0.0000 C   0  0  0  0  0  0  0  0  0  0  0  0
   -5.2172    1.6109    0.0000 C   0  0  0  0  0  0  0  0  0  0  0  0
   -9.3282    3.4412    0.0000 C   0  0  0  0  0  0  0  0  0  0  0  0
  -10.6985    4.0513    0.0000 N   0  0  0  0  0  0  0  0  0  0  0  0
   -1.5000    2.5981    0.0000 C   0  0  0  0  0  0  0  0  0  0  0  0
   -0.0905    3.1111    0.0000 C   0  0  0  0  0  0  0  0  0  0  0  0
   -1.7605    4.0753    0.0000 C   0  0  0  0  0  0  0  0  0  0  0  0
   -0.7500    1.2990    0.0000 C   0  0  0  0  0  0  0  0  0  0  0  0
    0.7500    1.2990    0.0000 C   0  0  0  0  0  0  0  0  0  0  0  0
  1  2  1  0
  2  3  1  0
  3  4  2  0
  4  5  1  0
  5  6  2  0
  6  7  1  0
  7  8  2  0
  7  9  1  0
  9 10  2  0
 10 11  1  0
 11 12  1  0
 12 13  2  0
 13 14  1  0
 13 15  1  0
 15 16  2  0
 16 17  1  0
 17 18  2  0
 15 19  1  0
 19 20  3  0
 10 21  1  0
 21 22  1  0
 21 23  1  0
 21 24  1  0
 24 25  2  0
 25  3  1  0
 24  6  1  0
 18  9  1  0
 18 12  1  0
M  END
>  <Ki>  (1) 
nan

>  <IC50>  (1) 
 1.93

$$$$
