50266104
     RDKit          2D

 38 42  0  0  0  0  0  0  0  0999 V2000
   -5.8147  -11.2594    0.0000 C   0  0  0  0  0  0  0  0  0  0  0  0
   -7.0282  -10.3778    0.0000 C   0  0  0  0  0  0  0  0  0  0  0  0
   -8.3985  -10.9879    0.0000 C   0  0  0  0  0  0  0  0  0  0  0  0
   -6.8714   -8.8860    0.0000 S   0  0  0  0  0  0  0  0  0  0  0  0
   -5.3796   -9.0428    0.0000 O   0  0  0  0  0  0  0  0  0  0  0  0
   -8.3632   -8.7292    0.0000 O   0  0  0  0  0  0  0  0  0  0  0  0
   -6.7146   -7.3942    0.0000 C   0  0  0  0  0  0  0  0  0  0  0  0
   -7.9281   -6.5125    0.0000 C   0  0  0  0  0  0  0  0  0  0  0  0
   -7.7713   -5.0207    0.0000 C   0  0  0  0  0  0  0  0  0  0  0  0
   -6.4010   -4.4106    0.0000 C   0  0  0  0  0  0  0  0  0  0  0  0
   -5.1875   -5.2923    0.0000 C   0  0  0  0  0  0  0  0  0  0  0  0
   -5.3443   -6.7841    0.0000 C   0  0  0  0  0  0  0  0  0  0  0  0
   -4.1308   -7.6658    0.0000 N   0  0  0  0  0  0  0  0  0  0  0  0
   -2.7604   -7.0557    0.0000 C   0  0  0  0  0  0  0  0  0  0  0  0
   -1.5469   -7.9373    0.0000 N   0  0  0  0  0  0  0  0  0  0  0  0
   -0.1766   -7.3272    0.0000 C   0  0  0  0  0  0  0  0  0  0  0  0
    1.0369   -8.2089    0.0000 N   0  0  0  0  0  0  0  0  0  0  0  0
    2.4072   -7.5988    0.0000 C   0  0  0  0  0  0  0  0  0  0  0  0
    3.6208   -8.4805    0.0000 C   0  0  0  0  0  0  0  0  0  0  0  0
    4.9911   -7.8704    0.0000 C   0  0  0  0  0  0  0  0  0  0  0  0
    5.1479   -6.3786    0.0000 C   0  0  0  0  0  0  0  0  0  0  0  0
    3.9343   -5.4969    0.0000 C   0  0  0  0  0  0  0  0  0  0  0  0
    4.0911   -4.0051    0.0000 N   0  0  0  0  0  0  0  0  0  0  0  0
    2.8776   -3.1235    0.0000 C   0  0  0  0  0  0  0  0  0  0  0  0
    1.5073   -3.7336    0.0000 O   0  0  0  0  0  0  0  0  0  0  0  0
    3.0344   -1.6317    0.0000 C   0  0  0  0  0  0  0  0  0  0  0  0
    1.8209   -0.7500    0.0000 N   0  0  0  0  0  0  0  0  0  0  0  0
    1.8209    0.7500    0.0000 C   0  0  0  0  0  0  0  0  0  0  0  0
    0.3943    1.2135    0.0000 C   0  0  0  0  0  0  0  0  0  0  0  0
    1.2760    0.0000    0.0000 C   0  0  0  0  0  0  0  0  0  0  0  0
    0.3943   -1.2135    0.0000 C   0  0  0  0  0  0  0  0  0  0  0  0
   -1.0323   -0.7500    0.0000 C   0  0  0  0  0  0  0  0  0  0  0  0
   -1.0323    0.7500    0.0000 N   0  0  0  0  0  0  0  0  0  0  0  0
    2.5640   -6.1070    0.0000 C   0  0  0  0  0  0  0  0  0  0  0  0
   -0.0198   -5.8355    0.0000 N   0  0  0  0  0  0  0  0  0  0  0  0
   -1.2333   -4.9538    0.0000 C   0  0  0  0  0  0  0  0  0  0  0  0
   -2.6037   -5.5639    0.0000 C   0  0  0  0  0  0  0  0  0  0  0  0
   -3.8172   -4.6822    0.0000 Cl  0  0  0  0  0  0  0  0  0  0  0  0
  1  2  1  0
  2  3  1  0
  2  4  1  0
  4  5  2  0
  4  6  2  0
  4  7  1  0
  7  8  2  0
  8  9  1  0
  9 10  2  0
 10 11  1  0
 11 12  2  0
 12 13  1  0
 13 14  1  0
 14 15  2  0
 15 16  1  0
 16 17  1  0
 17 18  1  0
 18 19  2  0
 19 20  1  0
 20 21  2  0
 21 22  1  0
 22 23  1  0
 23 24  1  0
 24 25  2  0
 24 26  1  0
 26 27  1  0
 27 28  1  0
 28 29  1  0
 29 30  1  0
 30 31  1  0
 31 32  1  0
 32 33  1  0
 22 34  2  0
 16 35  2  0
 35 36  1  0
 36 37  2  0
 37 38  1  0
 12  7  1  0
 37 14  1  0
 34 18  1  0
 31 27  1  0
 33 29  1  0
M  END
>  <Ki>  (1) 
nan

>  <IC50>  (1) 
 2.3

$$$$
