490456
     RDKit          2D

 36 39  0  0  0  0  0  0  0  0999 V2000
    3.9786   -1.2990    0.0000 C   0  0  0  0  0  0  0  0  0  0  0  0
    3.2286   -0.0000    0.0000 C   0  0  0  0  0  0  0  0  0  0  0  0
    1.7286    0.0000    0.0000 N   0  0  0  0  0  0  0  0  0  0  0  0
    1.0777    1.3515    0.0000 C   0  0  0  0  0  0  0  0  0  0  0  0
   -0.3846    1.6852    0.0000 C   0  0  0  0  0  0  0  0  0  0  0  0
   -1.5574    0.7500    0.0000 C   0  0  0  0  0  0  0  0  0  0  0  0
   -1.5574   -0.7500    0.0000 C   0  0  0  0  0  0  0  0  0  0  0  0
   -2.9537   -1.2980    0.0000 C   0  0  0  0  0  0  0  0  0  0  0  0
   -3.1773   -2.7813    0.0000 C   0  0  0  0  0  0  0  0  0  0  0  0
   -4.5736   -3.3293    0.0000 N   0  0  0  0  0  0  0  0  0  0  0  0
   -5.7463   -2.3940    0.0000 C   0  0  0  0  0  0  0  0  0  0  0  0
   -5.5228   -0.9108    0.0000 N   0  0  0  0  0  0  0  0  0  0  0  0
   -6.6955    0.0244    0.0000 C   0  0  0  0  0  0  0  0  0  0  0  0
   -8.0918   -0.5236    0.0000 C   0  0  0  0  0  0  0  0  0  0  0  0
   -9.2646    0.4117    0.0000 Cl  0  0  0  0  0  0  0  0  0  0  0  0
   -8.3154   -2.0068    0.0000 C   0  0  0  0  0  0  0  0  0  0  0  0
   -9.7117   -2.5548    0.0000 N   0  0  0  0  0  0  0  0  0  0  0  0
   -9.9353   -4.0381    0.0000 C   0  0  0  0  0  0  0  0  0  0  0  0
   -8.7625   -4.9733    0.0000 C   0  0  0  0  0  0  0  0  0  0  0  0
   -8.9861   -6.4566    0.0000 C   0  0  0  0  0  0  0  0  0  0  0  0
  -10.3824   -7.0046    0.0000 C   0  0  0  0  0  0  0  0  0  0  0  0
  -11.5551   -6.0693    0.0000 C   0  0  0  0  0  0  0  0  0  0  0  0
  -11.3316   -4.5861    0.0000 C   0  0  0  0  0  0  0  0  0  0  0  0
  -12.5043   -3.6508    0.0000 S   0  0  0  0  0  0  0  0  0  0  0  0
  -11.5691   -2.4781    0.0000 O   0  0  0  0  0  0  0  0  0  0  0  0
  -13.4395   -4.8236    0.0000 O   0  0  0  0  0  0  0  0  0  0  0  0
  -13.6771   -2.7156    0.0000 C   0  0  0  0  0  0  0  0  0  0  0  0
  -15.0734   -3.2636    0.0000 C   0  0  0  0  0  0  0  0  0  0  0  0
  -13.4535   -1.2324    0.0000 C   0  0  0  0  0  0  0  0  0  0  0  0
   -7.1426   -2.9420    0.0000 N   0  0  0  0  0  0  0  0  0  0  0  0
   -2.0045   -3.7165    0.0000 C   0  0  0  0  0  0  0  0  0  0  0  0
   -2.2281   -5.1997    0.0000 O   0  0  0  0  0  0  0  0  0  0  0  0
   -1.0553   -6.1350    0.0000 C   0  0  0  0  0  0  0  0  0  0  0  0
   -0.6082   -3.1685    0.0000 C   0  0  0  0  0  0  0  0  0  0  0  0
   -0.3846   -1.6852    0.0000 C   0  0  0  0  0  0  0  0  0  0  0  0
    1.0777   -1.3515    0.0000 C   0  0  0  0  0  0  0  0  0  0  0  0
  1  2  1  0
  2  3  1  0
  3  4  1  0
  4  5  1  0
  5  6  1  0
  6  7  1  0
  7  8  2  0
  8  9  1  0
  9 10  1  0
 10 11  1  0
 11 12  2  0
 12 13  1  0
 13 14  2  0
 14 15  1  0
 14 16  1  0
 16 17  1  0
 17 18  1  0
 18 19  2  0
 19 20  1  0
 20 21  2  0
 21 22  1  0
 22 23  2  0
 23 24  1  0
 24 25  2  0
 24 26  2  0
 24 27  1  0
 27 28  1  0
 27 29  1  0
 16 30  2  0
  9 31  2  0
 31 32  1  0
 32 33  1  0
 31 34  1  0
 34 35  2  0
 35 36  1  0
 36  3  1  0
 35  7  1  0
 30 11  1  0
 23 18  1  0
M  END
>  <Ki>  (1) 
nan

>  <IC50>  (1) 
 0.380

$$$$
