50266122
     RDKit          2D

 39 43  0  0  0  0  0  0  0  0999 V2000
   11.3223    7.1913    0.0000 C   0  0  0  0  0  0  0  0  0  0  0  0
   11.7858    5.7647    0.0000 C   0  0  0  0  0  0  0  0  0  0  0  0
   13.2530    5.4528    0.0000 C   0  0  0  0  0  0  0  0  0  0  0  0
   10.7821    4.6500    0.0000 S   0  0  0  0  0  0  0  0  0  0  0  0
    9.6674    5.6537    0.0000 O   0  0  0  0  0  0  0  0  0  0  0  0
   11.8968    3.6463    0.0000 O   0  0  0  0  0  0  0  0  0  0  0  0
    9.7784    3.5353    0.0000 C   0  0  0  0  0  0  0  0  0  0  0  0
   10.2420    2.1087    0.0000 C   0  0  0  0  0  0  0  0  0  0  0  0
    9.2383    0.9940    0.0000 C   0  0  0  0  0  0  0  0  0  0  0  0
    7.7710    1.3058    0.0000 C   0  0  0  0  0  0  0  0  0  0  0  0
    7.3075    2.7324    0.0000 C   0  0  0  0  0  0  0  0  0  0  0  0
    8.3112    3.8471    0.0000 C   0  0  0  0  0  0  0  0  0  0  0  0
    7.8477    5.2737    0.0000 N   0  0  0  0  0  0  0  0  0  0  0  0
    6.3805    5.5856    0.0000 C   0  0  0  0  0  0  0  0  0  0  0  0
    5.9169    7.0122    0.0000 N   0  0  0  0  0  0  0  0  0  0  0  0
    4.4497    7.3241    0.0000 C   0  0  0  0  0  0  0  0  0  0  0  0
    3.9862    8.7506    0.0000 N   0  0  0  0  0  0  0  0  0  0  0  0
    2.5190    9.0625    0.0000 C   0  0  0  0  0  0  0  0  0  0  0  0
    2.0554   10.4891    0.0000 C   0  0  0  0  0  0  0  0  0  0  0  0
    0.5882   10.8010    0.0000 C   0  0  0  0  0  0  0  0  0  0  0  0
   -0.4155    9.6862    0.0000 C   0  0  0  0  0  0  0  0  0  0  0  0
    0.0481    8.2597    0.0000 C   0  0  0  0  0  0  0  0  0  0  0  0
   -0.9556    7.1449    0.0000 N   0  0  0  0  0  0  0  0  0  0  0  0
   -0.4921    5.7184    0.0000 C   0  0  0  0  0  0  0  0  0  0  0  0
    0.9751    5.4065    0.0000 O   0  0  0  0  0  0  0  0  0  0  0  0
   -1.4958    4.6036    0.0000 C   0  0  0  0  0  0  0  0  0  0  0  0
   -1.0323    3.1771    0.0000 N   0  0  0  0  0  0  0  0  0  0  0  0
    0.3943    2.7135    0.0000 C   0  0  0  0  0  0  0  0  0  0  0  0
    0.3943    1.2135    0.0000 C   0  0  0  0  0  0  0  0  0  0  0  0
    1.2760    0.0000    0.0000 C   0  0  0  0  0  0  0  0  0  0  0  0
    0.3943   -1.2135    0.0000 N   0  0  0  0  0  0  0  0  0  0  0  0
   -1.0323   -0.7500    0.0000 C   0  0  0  0  0  0  0  0  0  0  0  0
   -1.0323    0.7500    0.0000 C   0  0  0  0  0  0  0  0  0  0  0  0
   -1.9140    1.9635    0.0000 C   0  0  0  0  0  0  0  0  0  0  0  0
    1.5153    7.9478    0.0000 C   0  0  0  0  0  0  0  0  0  0  0  0
    3.4460    6.2093    0.0000 N   0  0  0  0  0  0  0  0  0  0  0  0
    3.9095    4.7828    0.0000 C   0  0  0  0  0  0  0  0  0  0  0  0
    5.3768    4.4709    0.0000 C   0  0  0  0  0  0  0  0  0  0  0  0
    5.8403    3.0443    0.0000 Cl  0  0  0  0  0  0  0  0  0  0  0  0
  1  2  1  0
  2  3  1  0
  2  4  1  0
  4  5  2  0
  4  6  2  0
  4  7  1  0
  7  8  2  0
  8  9  1  0
  9 10  2  0
 10 11  1  0
 11 12  2  0
 12 13  1  0
 13 14  1  0
 14 15  2  0
 15 16  1  0
 16 17  1  0
 17 18  1  0
 18 19  2  0
 19 20  1  0
 20 21  2  0
 21 22  1  0
 22 23  1  0
 23 24  1  0
 24 25  2  0
 24 26  1  0
 26 27  1  0
 27 28  1  0
 28 29  1  0
 29 30  1  0
 30 31  1  0
 31 32  1  0
 32 33  1  0
 33 34  1  0
 22 35  2  0
 16 36  2  0
 36 37  1  0
 37 38  2  0
 38 39  1  0
 12  7  1  0
 38 14  1  0
 35 18  1  0
 34 27  1  0
 33 29  1  0
M  END
>  <Ki>  (1) 
nan

>  <IC50>  (1) 
 5.5

$$$$
