51287388
     RDKit          2D

 26 29  0  0  0  0  0  0  0  0999 V2000
   -0.7500   -3.8971    0.0000 C   0  0  0  0  0  0  0  0  0  0  0  0
    0.7500   -3.8971    0.0000 C   0  0  0  0  0  0  0  0  0  0  0  0
    1.5000   -2.5981    0.0000 N   0  0  0  0  0  0  0  0  0  0  0  0
    0.7500   -1.2990    0.0000 C   0  0  0  0  0  0  0  0  0  0  0  0
    1.5000    0.0000    0.0000 C   0  0  0  0  0  0  0  0  0  0  0  0
    0.7500    1.2990    0.0000 C   0  0  0  0  0  0  0  0  0  0  0  0
   -0.7500    1.2990    0.0000 C   0  0  0  0  0  0  0  0  0  0  0  0
   -1.7537    2.4138    0.0000 N   0  0  0  0  0  0  0  0  0  0  0  0
   -3.1240    1.8037    0.0000 C   0  0  0  0  0  0  0  0  0  0  0  0
   -2.9672    0.3119    0.0000 C   0  0  0  0  0  0  0  0  0  0  0  0
   -4.0819   -0.6918    0.0000 C   0  0  0  0  0  0  0  0  0  0  0  0
   -3.9251   -2.1836    0.0000 C   0  0  0  0  0  0  0  0  0  0  0  0
   -5.2955   -2.7937    0.0000 C   0  0  0  0  0  0  0  0  0  0  0  0
   -5.6073   -4.2609    0.0000 C   0  0  0  0  0  0  0  0  0  0  0  0
   -6.2992   -1.6790    0.0000 N   0  0  0  0  0  0  0  0  0  0  0  0
   -5.5492   -0.3800    0.0000 N   0  0  0  0  0  0  0  0  0  0  0  0
   -1.5000    0.0000    0.0000 N   0  0  0  0  0  0  0  0  0  0  0  0
   -0.7500   -1.2990    0.0000 N   0  0  0  0  0  0  0  0  0  0  0  0
    1.5000   -5.1962    0.0000 C   0  0  0  0  0  0  0  0  0  0  0  0
    3.0000   -5.1962    0.0000 C   0  0  0  0  0  0  0  0  0  0  0  0
    3.7500   -6.4952    0.0000 C   0  0  0  0  0  0  0  0  0  0  0  0
    3.0000   -7.7942    0.0000 C   0  0  0  0  0  0  0  0  0  0  0  0
    3.7500   -9.0933    0.0000 F   0  0  0  0  0  0  0  0  0  0  0  0
    1.5000   -7.7942    0.0000 C   0  0  0  0  0  0  0  0  0  0  0  0
    0.7500   -6.4952    0.0000 C   0  0  0  0  0  0  0  0  0  0  0  0
   -0.7500   -6.4952    0.0000 F   0  0  0  0  0  0  0  0  0  0  0  0
  2  1  1  6
  2  3  1  0
  3  4  1  0
  4  5  1  0
  5  6  2  0
  6  7  1  0
  7  8  2  0
  8  9  1  0
  9 10  2  0
 10 11  1  0
 11 12  2  0
 12 13  1  0
 13 14  1  0
 13 15  2  0
 15 16  1  0
 10 17  1  0
 17 18  1  0
  2 19  1  0
 19 20  2  0
 20 21  1  0
 21 22  2  0
 22 23  1  0
 22 24  1  0
 24 25  2  0
 25 26  1  0
 18  4  2  0
 25 19  1  0
 17  7  1  0
 16 11  1  0
M  END
>  <Ki>  (1) 
nan

>  <IC50>  (1) 
 6.0

$$$$
