321203
     RDKit          2D

 40 44  0  0  0  0  0  0  0  0999 V2000
   -7.7484   -7.0799    0.0000 C   0  0  0  0  0  0  0  0  0  0  0  0
   -6.5349   -7.9615    0.0000 C   0  0  0  0  0  0  0  0  0  0  0  0
   -5.1646   -7.3514    0.0000 N   0  0  0  0  0  0  0  0  0  0  0  0
   -5.0078   -5.8597    0.0000 C   0  0  0  0  0  0  0  0  0  0  0  0
   -3.6375   -5.2496    0.0000 C   0  0  0  0  0  0  0  0  0  0  0  0
   -2.4240   -6.1312    0.0000 C   0  0  0  0  0  0  0  0  0  0  0  0
   -2.5808   -7.6230    0.0000 C   0  0  0  0  0  0  0  0  0  0  0  0
   -3.9511   -8.2331    0.0000 C   0  0  0  0  0  0  0  0  0  0  0  0
   -1.0537   -5.5211    0.0000 C   0  0  0  0  0  0  0  0  0  0  0  0
   -0.7418   -4.0539    0.0000 C   0  0  0  0  0  0  0  0  0  0  0  0
    0.7500   -3.8971    0.0000 C   0  0  0  0  0  0  0  0  0  0  0  0
    1.5000   -2.5981    0.0000 N   0  0  0  0  0  0  0  0  0  0  0  0
    0.7500   -1.2990    0.0000 C   0  0  0  0  0  0  0  0  0  0  0  0
    1.5000    0.0000    0.0000 N   0  0  0  0  0  0  0  0  0  0  0  0
    0.7500    1.2990    0.0000 C   0  0  0  0  0  0  0  0  0  0  0  0
   -0.7500    1.2990    0.0000 C   0  0  0  0  0  0  0  0  0  0  0  0
   -1.7537    2.4138    0.0000 S   0  0  0  0  0  0  0  0  0  0  0  0
   -3.1240    1.8037    0.0000 C   0  0  0  0  0  0  0  0  0  0  0  0
   -4.4231    2.5537    0.0000 C   0  0  0  0  0  0  0  0  0  0  0  0
   -4.4231    4.0537    0.0000 N   0  0  0  0  0  0  0  0  0  0  0  0
   -5.7221    1.8037    0.0000 O   0  0  0  0  0  0  0  0  0  0  0  0
   -2.9672    0.3119    0.0000 C   0  0  0  0  0  0  0  0  0  0  0  0
   -4.0819   -0.6918    0.0000 C   0  0  0  0  0  0  0  0  0  0  0  0
   -5.5085   -0.2283    0.0000 C   0  0  0  0  0  0  0  0  0  0  0  0
   -6.6232   -1.2320    0.0000 C   0  0  0  0  0  0  0  0  0  0  0  0
   -6.3114   -2.6992    0.0000 C   0  0  0  0  0  0  0  0  0  0  0  0
   -4.8848   -3.1627    0.0000 C   0  0  0  0  0  0  0  0  0  0  0  0
   -3.7701   -2.1590    0.0000 C   0  0  0  0  0  0  0  0  0  0  0  0
   -2.3435   -2.6226    0.0000 O   0  0  0  0  0  0  0  0  0  0  0  0
   -1.2288   -1.6189    0.0000 C   0  0  0  0  0  0  0  0  0  0  0  0
   -0.1141   -0.6152    0.0000 F   0  0  0  0  0  0  0  0  0  0  0  0
   -2.2325   -0.5042    0.0000 F   0  0  0  0  0  0  0  0  0  0  0  0
   -0.2251   -2.7336    0.0000 F   0  0  0  0  0  0  0  0  0  0  0  0
   -1.5000    0.0000    0.0000 C   0  0  0  0  0  0  0  0  0  0  0  0
   -0.7500   -1.2990    0.0000 N   0  0  0  0  0  0  0  0  0  0  0  0
    1.3601   -5.2674    0.0000 N   0  0  0  0  0  0  0  0  0  0  0  0
    0.2454   -6.2711    0.0000 N   0  0  0  0  0  0  0  0  0  0  0  0
    2.8273   -5.5793    0.0000 C   0  0  0  0  0  0  0  0  0  0  0  0
    3.2909   -7.0059    0.0000 C   0  0  0  0  0  0  0  0  0  0  0  0
    3.8310   -4.4646    0.0000 C   0  0  0  0  0  0  0  0  0  0  0  0
  1  2  1  0
  2  3  1  0
  3  4  1  0
  4  5  1  0
  5  6  1  0
  6  7  1  0
  7  8  1  0
  6  9  1  0
  9 10  1  0
 10 11  2  0
 11 12  1  0
 12 13  1  0
 13 14  2  0
 14 15  1  0
 15 16  2  0
 16 17  1  0
 17 18  1  0
 18 19  1  0
 19 20  1  0
 19 21  2  0
 18 22  2  0
 22 23  1  0
 23 24  2  0
 24 25  1  0
 25 26  2  0
 26 27  1  0
 27 28  2  0
 28 29  1  0
 29 30  1  0
 30 31  1  0
 30 32  1  0
 30 33  1  0
 22 34  1  0
 34 35  2  0
 11 36  1  0
 36 37  1  0
 36 38  1  0
 38 39  1  0
 38 40  1  0
  8  3  1  0
 37  9  2  0
 35 13  1  0
 34 16  1  0
 28 23  1  0
M  END
>  <Ki>  (1) 
nan

>  <IC50>  (1) 
 0.5

$$$$
