50506569
     RDKit          2D

 35 38  0  0  0  0  0  0  0  0999 V2000
    6.4627    1.8535    0.0000 C   0  0  0  0  0  0  0  0  0  0  0  0
    5.9147    3.2498    0.0000 O   0  0  0  0  0  0  0  0  0  0  0  0
    4.4315    3.4734    0.0000 C   0  0  0  0  0  0  0  0  0  0  0  0
    3.4962    2.3006    0.0000 C   0  0  0  0  0  0  0  0  0  0  0  0
    2.0130    2.5242    0.0000 C   0  0  0  0  0  0  0  0  0  0  0  0
    1.4650    3.9205    0.0000 C   0  0  0  0  0  0  0  0  0  0  0  0
    2.4002    5.0933    0.0000 C   0  0  0  0  0  0  0  0  0  0  0  0
    3.8835    4.8697    0.0000 C   0  0  0  0  0  0  0  0  0  0  0  0
    4.8187    6.0424    0.0000 N   0  0  0  0  0  0  0  0  0  0  0  0
    4.2707    7.4388    0.0000 C   0  0  0  0  0  0  0  0  0  0  0  0
    5.2059    8.6115    0.0000 N   0  0  0  0  0  0  0  0  0  0  0  0
    4.6579   10.0078    0.0000 C   0  0  0  0  0  0  0  0  0  0  0  0
    3.1747   10.2314    0.0000 C   0  0  0  0  0  0  0  0  0  0  0  0
    2.6266   11.6277    0.0000 Cl  0  0  0  0  0  0  0  0  0  0  0  0
    2.2394    9.0586    0.0000 C   0  0  0  0  0  0  0  0  0  0  0  0
    0.7562    9.2822    0.0000 N   0  0  0  0  0  0  0  0  0  0  0  0
   -0.1791    8.1094    0.0000 C   0  0  0  0  0  0  0  0  0  0  0  0
    0.3689    6.7131    0.0000 C   0  0  0  0  0  0  0  0  0  0  0  0
   -0.5663    5.5404    0.0000 C   0  0  0  0  0  0  0  0  0  0  0  0
   -2.0495    5.7639    0.0000 C   0  0  0  0  0  0  0  0  0  0  0  0
   -2.5975    7.1603    0.0000 C   0  0  0  0  0  0  0  0  0  0  0  0
   -1.6623    8.3330    0.0000 C   0  0  0  0  0  0  0  0  0  0  0  0
   -2.2103    9.7293    0.0000 P   0  0  0  0  0  0  0  0  0  0  0  0
   -0.8140   10.2773    0.0000 C   0  0  0  0  0  0  0  0  0  0  0  0
   -3.6066    9.1813    0.0000 C   0  0  0  0  0  0  0  0  0  0  0  0
   -2.7583   11.1256    0.0000 O   0  0  0  0  0  0  0  0  0  0  0  0
    2.7874    7.6623    0.0000 N   0  0  0  0  0  0  0  0  0  0  0  0
    1.0777    1.3515    0.0000 N   0  0  0  0  0  0  0  0  0  0  0  0
    1.7286    0.0000    0.0000 C   0  0  0  0  0  0  0  0  0  0  0  0
    1.0777   -1.3515    0.0000 C   0  0  0  0  0  0  0  0  0  0  0  0
   -0.3846   -1.6852    0.0000 C   0  0  0  0  0  0  0  0  0  0  0  0
   -1.5574   -0.7500    0.0000 N   0  0  0  0  0  0  0  0  0  0  0  0
   -2.9088   -1.4008    0.0000 C   0  0  0  0  0  0  0  0  0  0  0  0
   -1.5574    0.7500    0.0000 C   0  0  0  0  0  0  0  0  0  0  0  0
   -0.3846    1.6852    0.0000 C   0  0  0  0  0  0  0  0  0  0  0  0
  1  2  1  0
  2  3  1  0
  3  4  2  0
  4  5  1  0
  5  6  2  0
  6  7  1  0
  7  8  2  0
  8  9  1  0
  9 10  1  0
 10 11  2  0
 11 12  1  0
 12 13  2  0
 13 14  1  0
 13 15  1  0
 15 16  1  0
 16 17  1  0
 17 18  2  0
 18 19  1  0
 19 20  2  0
 20 21  1  0
 21 22  2  0
 22 23  1  0
 23 24  1  0
 23 25  1  0
 23 26  2  0
 15 27  2  0
  5 28  1  0
 28 29  1  0
 29 30  1  0
 30 31  1  0
 31 32  1  0
 32 33  1  0
 32 34  1  0
 34 35  1  0
  8  3  1  0
 27 10  1  0
 35 28  1  0
 22 17  1  0
M  END
>  <Ki>  (1) 
nan

>  <IC50>  (1) 
 0.720000

$$$$
