50520581
     RDKit          2D

 37 41  0  0  0  0  0  0  0  0999 V2000
    7.7286   -2.5981    0.0000 C   0  0  0  0  0  0  0  0  0  0  0  0
    6.2286   -2.5981    0.0000 O   0  0  0  0  0  0  0  0  0  0  0  0
    5.4786   -1.2990    0.0000 C   0  0  0  0  0  0  0  0  0  0  0  0
    3.9786   -1.2990    0.0000 C   0  0  0  0  0  0  0  0  0  0  0  0
    3.2286   -0.0000    0.0000 N   0  0  0  0  0  0  0  0  0  0  0  0
    1.7286    0.0000    0.0000 C   0  0  0  0  0  0  0  0  0  0  0  0
    1.0777    1.3515    0.0000 C   0  0  0  0  0  0  0  0  0  0  0  0
   -0.3846    1.6852    0.0000 C   0  0  0  0  0  0  0  0  0  0  0  0
   -1.5574    0.7500    0.0000 C   0  0  0  0  0  0  0  0  0  0  0  0
   -1.5574   -0.7500    0.0000 C   0  0  0  0  0  0  0  0  0  0  0  0
   -0.3846   -1.6852    0.0000 C   0  0  0  0  0  0  0  0  0  0  0  0
    1.0777   -1.3515    0.0000 C   0  0  0  0  0  0  0  0  0  0  0  0
   -0.6082   -3.1685    0.0000 C   0  0  0  0  0  0  0  0  0  0  0  0
   -2.0045   -3.7165    0.0000 C   0  0  0  0  0  0  0  0  0  0  0  0
   -3.1773   -2.7813    0.0000 C   0  0  0  0  0  0  0  0  0  0  0  0
   -4.5736   -3.3293    0.0000 N   0  0  0  0  0  0  0  0  0  0  0  0
   -5.7463   -2.3940    0.0000 C   0  0  0  0  0  0  0  0  0  0  0  0
   -5.5228   -0.9108    0.0000 N   0  0  0  0  0  0  0  0  0  0  0  0
   -6.6955    0.0244    0.0000 C   0  0  0  0  0  0  0  0  0  0  0  0
   -8.0918   -0.5236    0.0000 C   0  0  0  0  0  0  0  0  0  0  0  0
   -9.2646    0.4117    0.0000 Cl  0  0  0  0  0  0  0  0  0  0  0  0
   -8.3154   -2.0068    0.0000 C   0  0  0  0  0  0  0  0  0  0  0  0
   -9.7117   -2.5548    0.0000 N   0  0  0  0  0  0  0  0  0  0  0  0
   -9.9353   -4.0381    0.0000 C   0  0  0  0  0  0  0  0  0  0  0  0
   -8.8667   -5.0908    0.0000 C   0  0  0  0  0  0  0  0  0  0  0  0
  -10.3499   -4.8672    0.0000 C   0  0  0  0  0  0  0  0  0  0  0  0
  -11.0209   -6.2088    0.0000 C   0  0  0  0  0  0  0  0  0  0  0  0
   -9.9523   -7.2615    0.0000 C   0  0  0  0  0  0  0  0  0  0  0  0
   -8.6210   -6.5705    0.0000 C   0  0  0  0  0  0  0  0  0  0  0  0
  -11.2666   -4.7290    0.0000 C   0  0  0  0  0  0  0  0  0  0  0  0
  -12.6082   -4.0581    0.0000 C   0  0  0  0  0  0  0  0  0  0  0  0
  -13.8601   -4.8844    0.0000 N   0  0  0  0  0  0  0  0  0  0  0  0
  -12.6979   -2.5607    0.0000 O   0  0  0  0  0  0  0  0  0  0  0  0
   -7.1426   -2.9420    0.0000 N   0  0  0  0  0  0  0  0  0  0  0  0
   -2.9537   -1.2980    0.0000 C   0  0  0  0  0  0  0  0  0  0  0  0
   -4.1264   -0.3628    0.0000 O   0  0  0  0  0  0  0  0  0  0  0  0
   -3.9029    1.1205    0.0000 C   0  0  0  0  0  0  0  0  0  0  0  0
  1  2  1  0
  2  3  1  0
  3  4  1  0
  4  5  1  0
  5  6  1  0
  6  7  1  0
  7  8  1  0
  8  9  1  0
  9 10  1  0
 10 11  1  0
 11 12  1  0
 11 13  2  0
 13 14  1  0
 14 15  2  0
 15 16  1  0
 16 17  1  0
 17 18  2  0
 18 19  1  0
 19 20  2  0
 20 21  1  0
 20 22  1  0
 22 23  1  0
 24 23  1  6
 24 25  1  0
 25 26  1  0
 26 27  1  0
 27 28  1  1
 28 29  2  0
 27 30  1  0
 30 31  1  6
 31 32  1  0
 31 33  2  0
 22 34  2  0
 15 35  1  0
 35 36  1  0
 36 37  1  0
 12  6  1  0
 34 17  1  0
 35 10  2  0
 30 24  1  0
 25 29  1  1
M  END
>  <Ki>  (1) 
nan

>  <IC50>  (1) 
 7.0

$$$$
