325679
     RDKit          2D

 41 47  0  0  0  0  0  0  0  0999 V2000
    0.2061   -6.5545    0.0000 C   0  0  0  0  0  0  0  0  0  0  0  0
   -0.1568   -5.0991    0.0000 C   0  0  0  0  0  0  0  0  0  0  0  0
    1.3396   -4.9944    0.0000 C   0  0  0  0  0  0  0  0  0  0  0  0
    0.0000   -3.6073    0.0000 C   0  0  0  0  0  0  0  0  0  0  0  0
    1.2135   -2.7256    0.0000 N   0  0  0  0  0  0  0  0  0  0  0  0
    0.7500   -1.2990    0.0000 C   0  0  0  0  0  0  0  0  0  0  0  0
    1.5000    0.0000    0.0000 C   0  0  0  0  0  0  0  0  0  0  0  0
    0.7500    1.2990    0.0000 C   0  0  0  0  0  0  0  0  0  0  0  0
   -0.7500    1.2990    0.0000 C   0  0  0  0  0  0  0  0  0  0  0  0
   -1.5000    0.0000    0.0000 C   0  0  0  0  0  0  0  0  0  0  0  0
   -0.7500   -1.2990    0.0000 C   0  0  0  0  0  0  0  0  0  0  0  0
   -1.2135   -2.7256    0.0000 C   0  0  0  0  0  0  0  0  0  0  0  0
   -2.5838   -3.3357    0.0000 C   0  0  0  0  0  0  0  0  0  0  0  0
   -3.7974   -2.4540    0.0000 O   0  0  0  0  0  0  0  0  0  0  0  0
   -2.7406   -4.8275    0.0000 C   0  0  0  0  0  0  0  0  0  0  0  0
   -4.1110   -5.4376    0.0000 C   0  0  0  0  0  0  0  0  0  0  0  0
   -4.2677   -6.9294    0.0000 C   0  0  0  0  0  0  0  0  0  0  0  0
   -3.0542   -7.8111    0.0000 C   0  0  0  0  0  0  0  0  0  0  0  0
   -1.6839   -7.2010    0.0000 C   0  0  0  0  0  0  0  0  0  0  0  0
   -1.5271   -5.7092    0.0000 C   0  0  0  0  0  0  0  0  0  0  0  0
   -3.2110   -9.3029    0.0000 N   0  0  0  0  0  0  0  0  0  0  0  0
   -4.5813   -9.9130    0.0000 C   0  0  0  0  0  0  0  0  0  0  0  0
   -4.7381  -11.4047    0.0000 C   0  0  0  0  0  0  0  0  0  0  0  0
   -3.5246  -12.2864    0.0000 C   0  0  0  0  0  0  0  0  0  0  0  0
   -2.1543  -11.6763    0.0000 C   0  0  0  0  0  0  0  0  0  0  0  0
   -1.9975  -10.1845    0.0000 C   0  0  0  0  0  0  0  0  0  0  0  0
   -3.6814  -13.7782    0.0000 N   0  0  0  0  0  0  0  0  0  0  0  0
   -2.5667  -14.7819    0.0000 C   0  0  0  0  0  0  0  0  0  0  0  0
   -3.1768  -16.1522    0.0000 C   0  0  0  0  0  0  0  0  0  0  0  0
   -4.6686  -15.9954    0.0000 C   0  0  0  0  0  0  0  0  0  0  0  0
   -4.9804  -14.5282    0.0000 C   0  0  0  0  0  0  0  0  0  0  0  0
   -5.6381   -7.5395    0.0000 S   0  0  0  0  0  0  0  0  0  0  0  0
   -6.2482   -6.1692    0.0000 O   0  0  0  0  0  0  0  0  0  0  0  0
   -5.0280   -8.9098    0.0000 O   0  0  0  0  0  0  0  0  0  0  0  0
   -7.0084   -8.1496    0.0000 N   0  0  0  0  0  0  0  0  0  0  0  0
   -7.3203   -9.6168    0.0000 C   0  0  0  0  0  0  0  0  0  0  0  0
   -8.8120   -9.7736    0.0000 C   0  0  0  0  0  0  0  0  0  0  0  0
   -9.4221   -8.4033    0.0000 C   0  0  0  0  0  0  0  0  0  0  0  0
   -8.3074   -7.3996    0.0000 C   0  0  0  0  0  0  0  0  0  0  0  0
    1.5000    2.5981    0.0000 C   0  0  0  0  0  0  0  0  0  0  0  0
    2.2500    3.8971    0.0000 N   0  0  0  0  0  0  0  0  0  0  0  0
  1  2  1  0
  2  3  1  0
  2  4  1  0
  4  5  1  0
  5  6  1  0
  6  7  2  0
  7  8  1  0
  8  9  2  0
  9 10  1  0
 10 11  2  0
 11 12  1  0
 12 13  1  0
 13 14  2  0
 13 15  1  0
 15 16  2  0
 16 17  1  0
 17 18  2  0
 18 19  1  0
 19 20  2  0
 18 21  1  0
 21 22  1  0
 22 23  1  0
 23 24  1  0
 24 25  1  0
 25 26  1  0
 24 27  1  0
 27 28  1  0
 28 29  1  0
 29 30  1  0
 30 31  1  0
 17 32  1  0
 32 33  2  0
 32 34  2  0
 32 35  1  0
 35 36  1  0
 36 37  1  0
 37 38  1  0
 38 39  1  0
  8 40  1  0
 40 41  3  0
 20  2  1  0
 26 21  1  0
 31 27  1  0
 39 35  1  0
 12  4  2  0
 20 15  1  0
 11  6  1  0
M  END
>  <Ki>  (1) 
nan

>  <IC50>  (1) 
 8.753

$$$$
