50174554
     RDKit          2D

 35 38  0  0  0  0  0  0  0  0999 V2000
    6.2286   -2.5981    0.0000 C   0  0  0  0  0  0  0  0  0  0  0  0
    5.4786   -1.2990    0.0000 O   0  0  0  0  0  0  0  0  0  0  0  0
    3.9786   -1.2990    0.0000 C   0  0  0  0  0  0  0  0  0  0  0  0
    3.2286   -0.0000    0.0000 C   0  0  0  0  0  0  0  0  0  0  0  0
    1.7286    0.0000    0.0000 N   0  0  0  0  0  0  0  0  0  0  0  0
    1.0777    1.3515    0.0000 C   0  0  0  0  0  0  0  0  0  0  0  0
   -0.3846    1.6852    0.0000 C   0  0  0  0  0  0  0  0  0  0  0  0
   -1.5574    0.7500    0.0000 C   0  0  0  0  0  0  0  0  0  0  0  0
   -2.8564    1.5000    0.0000 C   0  0  0  0  0  0  0  0  0  0  0  0
   -4.1555    0.7500    0.0000 C   0  0  0  0  0  0  0  0  0  0  0  0
   -4.1555   -0.7500    0.0000 C   0  0  0  0  0  0  0  0  0  0  0  0
   -5.4545   -1.5000    0.0000 N   0  0  0  0  0  0  0  0  0  0  0  0
   -6.7535   -0.7500    0.0000 C   0  0  0  0  0  0  0  0  0  0  0  0
   -6.7535    0.7500    0.0000 N   0  0  0  0  0  0  0  0  0  0  0  0
   -8.0526    1.5000    0.0000 C   0  0  0  0  0  0  0  0  0  0  0  0
   -9.3516    0.7500    0.0000 C   0  0  0  0  0  0  0  0  0  0  0  0
  -10.6507    1.5000    0.0000 Cl  0  0  0  0  0  0  0  0  0  0  0  0
   -9.3516   -0.7500    0.0000 C   0  0  0  0  0  0  0  0  0  0  0  0
  -10.6507   -1.5000    0.0000 N   0  0  0  0  0  0  0  0  0  0  0  0
  -10.6507   -3.0000    0.0000 C   0  0  0  0  0  0  0  0  0  0  0  0
  -11.9497   -3.7500    0.0000 C   0  0  0  0  0  0  0  0  0  0  0  0
  -11.9497   -5.2500    0.0000 C   0  0  0  0  0  0  0  0  0  0  0  0
  -10.6507   -6.0000    0.0000 C   0  0  0  0  0  0  0  0  0  0  0  0
   -9.3516   -5.2500    0.0000 C   0  0  0  0  0  0  0  0  0  0  0  0
   -9.3516   -3.7500    0.0000 C   0  0  0  0  0  0  0  0  0  0  0  0
   -8.0526   -3.0000    0.0000 N   0  0  0  0  0  0  0  0  0  0  0  0
   -6.7535   -3.7500    0.0000 S   0  0  0  0  0  0  0  0  0  0  0  0
   -5.4545   -4.5000    0.0000 C   0  0  0  0  0  0  0  0  0  0  0  0
   -7.5035   -5.0490    0.0000 O   0  0  0  0  0  0  0  0  0  0  0  0
   -6.0035   -2.4510    0.0000 O   0  0  0  0  0  0  0  0  0  0  0  0
   -8.0526   -1.5000    0.0000 N   0  0  0  0  0  0  0  0  0  0  0  0
   -2.8564   -1.5000    0.0000 C   0  0  0  0  0  0  0  0  0  0  0  0
   -1.5574   -0.7500    0.0000 C   0  0  0  0  0  0  0  0  0  0  0  0
   -0.3846   -1.6852    0.0000 C   0  0  0  0  0  0  0  0  0  0  0  0
    1.0777   -1.3515    0.0000 C   0  0  0  0  0  0  0  0  0  0  0  0
  1  2  1  0
  2  3  1  0
  3  4  1  0
  4  5  1  0
  5  6  1  0
  6  7  1  0
  7  8  1  0
  8  9  2  0
  9 10  1  0
 10 11  2  0
 11 12  1  0
 12 13  1  0
 13 14  2  0
 14 15  1  0
 15 16  2  0
 16 17  1  0
 16 18  1  0
 18 19  1  0
 20 19  1  1
 20 21  1  0
 21 22  1  0
 22 23  1  0
 23 24  1  0
 24 25  1  0
 25 26  1  6
 26 27  1  0
 27 28  1  0
 27 29  2  0
 27 30  2  0
 18 31  2  0
 11 32  1  0
 32 33  2  0
 33 34  1  0
 34 35  1  0
 35  5  1  0
 33  8  1  0
 31 13  1  0
 25 20  1  0
M  END
>  <Ki>  (1) 
nan

>  <IC50>  (1) 
 9

$$$$
