50170166
     RDKit          2D

 42 46  0  0  0  0  0  0  0  0999 V2000
    4.1385    4.6502    0.0000 C   0  0  0  0  0  0  0  0  0  0  0  0
    2.6761    4.9840    0.0000 O   0  0  0  0  0  0  0  0  0  0  0  0
    1.6559    3.8844    0.0000 C   0  0  0  0  0  0  0  0  0  0  0  0
    2.0980    2.4510    0.0000 C   0  0  0  0  0  0  0  0  0  0  0  0
    1.0777    1.3515    0.0000 C   0  0  0  0  0  0  0  0  0  0  0  0
    1.7286    0.0000    0.0000 C   0  0  0  0  0  0  0  0  0  0  0  0
    1.0777   -1.3515    0.0000 C   0  0  0  0  0  0  0  0  0  0  0  0
   -0.3846   -1.6852    0.0000 N   0  0  0  0  0  0  0  0  0  0  0  0
   -0.7184   -3.1476    0.0000 C   0  0  0  0  0  0  0  0  0  0  0  0
   -2.1518   -3.5898    0.0000 C   0  0  0  0  0  0  0  0  0  0  0  0
   -2.4856   -5.0522    0.0000 S   0  0  0  0  0  0  0  0  0  0  0  0
   -2.8193   -6.5145    0.0000 C   0  0  0  0  0  0  0  0  0  0  0  0
   -1.0232   -5.3859    0.0000 O   0  0  0  0  0  0  0  0  0  0  0  0
   -3.9480   -4.7184    0.0000 O   0  0  0  0  0  0  0  0  0  0  0  0
   -1.5574   -0.7500    0.0000 C   0  0  0  0  0  0  0  0  0  0  0  0
   -1.5574    0.7500    0.0000 C   0  0  0  0  0  0  0  0  0  0  0  0
   -0.3846    1.6852    0.0000 C   0  0  0  0  0  0  0  0  0  0  0  0
   -0.8268    3.1186    0.0000 C   0  0  0  0  0  0  0  0  0  0  0  0
    0.1935    4.2182    0.0000 C   0  0  0  0  0  0  0  0  0  0  0  0
   -0.2487    5.6515    0.0000 N   0  0  0  0  0  0  0  0  0  0  0  0
    0.7716    6.7511    0.0000 C   0  0  0  0  0  0  0  0  0  0  0  0
    2.2340    6.4173    0.0000 N   0  0  0  0  0  0  0  0  0  0  0  0
    3.2543    7.5169    0.0000 C   0  0  0  0  0  0  0  0  0  0  0  0
    2.8121    8.9503    0.0000 C   0  0  0  0  0  0  0  0  0  0  0  0
    3.8324   10.0498    0.0000 Cl  0  0  0  0  0  0  0  0  0  0  0  0
    1.3497    9.2840    0.0000 C   0  0  0  0  0  0  0  0  0  0  0  0
    0.9076   10.7174    0.0000 N   0  0  0  0  0  0  0  0  0  0  0  0
   -0.5548   11.0512    0.0000 C   0  0  0  0  0  0  0  0  0  0  0  0
   -0.9969   12.4845    0.0000 C   0  0  0  0  0  0  0  0  0  0  0  0
   -2.4593   12.8183    0.0000 C   0  0  0  0  0  0  0  0  0  0  0  0
   -3.4796   11.7187    0.0000 C   0  0  0  0  0  0  0  0  0  0  0  0
   -3.0374   10.2854    0.0000 C   0  0  0  0  0  0  0  0  0  0  0  0
   -1.5750    9.9516    0.0000 C   0  0  0  0  0  0  0  0  0  0  0  0
   -1.1329    8.5182    0.0000 O   0  0  0  0  0  0  0  0  0  0  0  0
   -2.1532    7.4187    0.0000 C   0  0  0  0  0  0  0  0  0  0  0  0
   -4.9420   12.0525    0.0000 N   0  0  0  0  0  0  0  0  0  0  0  0
   -5.3841   13.4859    0.0000 C   0  0  0  0  0  0  0  0  0  0  0  0
   -6.8465   13.8197    0.0000 C   0  0  0  0  0  0  0  0  0  0  0  0
   -7.8667   12.7201    0.0000 O   0  0  0  0  0  0  0  0  0  0  0  0
   -7.4246   11.2867    0.0000 C   0  0  0  0  0  0  0  0  0  0  0  0
   -5.9622   10.9530    0.0000 C   0  0  0  0  0  0  0  0  0  0  0  0
    0.3295    8.1845    0.0000 N   0  0  0  0  0  0  0  0  0  0  0  0
  1  2  1  0
  2  3  1  0
  3  4  2  0
  4  5  1  0
  5  6  1  0
  6  7  1  0
  7  8  1  0
  8  9  1  0
  9 10  1  0
 10 11  1  0
 11 12  1  0
 11 13  2  0
 11 14  2  0
  8 15  1  0
 15 16  1  0
 16 17  1  0
 17 18  1  0
 18 19  2  0
 19 20  1  0
 20 21  1  0
 21 22  2  0
 22 23  1  0
 23 24  2  0
 24 25  1  0
 24 26  1  0
 26 27  1  0
 27 28  1  0
 28 29  2  0
 29 30  1  0
 30 31  2  0
 31 32  1  0
 32 33  2  0
 33 34  1  0
 34 35  1  0
 31 36  1  0
 36 37  1  0
 37 38  1  0
 38 39  1  0
 39 40  1  0
 40 41  1  0
 26 42  2  0
 19  3  1  0
 42 21  1  0
 17  5  2  0
 33 28  1  0
 41 36  1  0
M  END
>  <Ki>  (1) 
nan

>  <IC50>  (1) 
 10

$$$$
