490524
     RDKit          2D

 37 41  0  0  0  0  0  0  0  0999 V2000
    4.8726   -1.8188    0.0000 C   0  0  0  0  0  0  0  0  0  0  0  0
    5.3361   -0.3922    0.0000 O   0  0  0  0  0  0  0  0  0  0  0  0
    4.3324    0.7225    0.0000 C   0  0  0  0  0  0  0  0  0  0  0  0
    2.8652    0.4107    0.0000 C   0  0  0  0  0  0  0  0  0  0  0  0
    1.8615    1.5254    0.0000 C   0  0  0  0  0  0  0  0  0  0  0  0
    2.3250    2.9520    0.0000 C   0  0  0  0  0  0  0  0  0  0  0  0
    1.3213    4.0667    0.0000 C   0  0  0  0  0  0  0  0  0  0  0  0
   -0.1459    3.7548    0.0000 N   0  0  0  0  0  0  0  0  0  0  0  0
   -0.6094    2.3282    0.0000 C   0  0  0  0  0  0  0  0  0  0  0  0
    0.3943    1.2135    0.0000 C   0  0  0  0  0  0  0  0  0  0  0  0
    1.2760    0.0000    0.0000 C   0  0  0  0  0  0  0  0  0  0  0  0
    0.3943   -1.2135    0.0000 C   0  0  0  0  0  0  0  0  0  0  0  0
   -1.0323   -0.7500    0.0000 C   0  0  0  0  0  0  0  0  0  0  0  0
   -1.0323    0.7500    0.0000 C   0  0  0  0  0  0  0  0  0  0  0  0
    3.7923    3.2638    0.0000 C   0  0  0  0  0  0  0  0  0  0  0  0
    4.7960    2.1491    0.0000 C   0  0  0  0  0  0  0  0  0  0  0  0
    6.2632    2.4610    0.0000 N   0  0  0  0  0  0  0  0  0  0  0  0
    7.2669    1.3463    0.0000 C   0  0  0  0  0  0  0  0  0  0  0  0
    6.8034   -0.0803    0.0000 N   0  0  0  0  0  0  0  0  0  0  0  0
    7.8071   -1.1950    0.0000 C   0  0  0  0  0  0  0  0  0  0  0  0
    9.2743   -0.8832    0.0000 C   0  0  0  0  0  0  0  0  0  0  0  0
   10.2780   -1.9979    0.0000 Cl  0  0  0  0  0  0  0  0  0  0  0  0
    9.7378    0.5434    0.0000 C   0  0  0  0  0  0  0  0  0  0  0  0
   11.2050    0.8553    0.0000 N   0  0  0  0  0  0  0  0  0  0  0  0
   11.6685    2.2819    0.0000 C   0  0  0  0  0  0  0  0  0  0  0  0
   10.6648    3.3966    0.0000 C   0  0  0  0  0  0  0  0  0  0  0  0
   11.1284    4.8232    0.0000 C   0  0  0  0  0  0  0  0  0  0  0  0
   12.5956    5.1351    0.0000 C   0  0  0  0  0  0  0  0  0  0  0  0
   13.5993    4.0203    0.0000 C   0  0  0  0  0  0  0  0  0  0  0  0
   13.1358    2.5937    0.0000 C   0  0  0  0  0  0  0  0  0  0  0  0
   14.1395    1.4790    0.0000 S   0  0  0  0  0  0  0  0  0  0  0  0
   13.0247    0.4753    0.0000 O   0  0  0  0  0  0  0  0  0  0  0  0
   15.2542    2.4827    0.0000 O   0  0  0  0  0  0  0  0  0  0  0  0
   15.1432    0.3643    0.0000 C   0  0  0  0  0  0  0  0  0  0  0  0
   16.6104    0.6762    0.0000 C   0  0  0  0  0  0  0  0  0  0  0  0
   14.6796   -1.0623    0.0000 C   0  0  0  0  0  0  0  0  0  0  0  0
    8.7341    1.6581    0.0000 N   0  0  0  0  0  0  0  0  0  0  0  0
  1  2  1  0
  2  3  1  0
  3  4  2  0
  4  5  1  0
  5  6  2  0
  6  7  1  0
  7  8  1  0
  8  9  1  0
  9 10  1  0
 10 11  1  0
 11 12  1  0
 12 13  1  0
 13 14  1  0
  6 15  1  0
 15 16  2  0
 16 17  1  0
 17 18  1  0
 18 19  2  0
 19 20  1  0
 20 21  2  0
 21 22  1  0
 21 23  1  0
 23 24  1  0
 24 25  1  0
 25 26  2  0
 26 27  1  0
 27 28  2  0
 28 29  1  0
 29 30  2  0
 30 31  1  0
 31 32  2  0
 31 33  2  0
 31 34  1  0
 34 35  1  0
 34 36  1  0
 23 37  2  0
 16  3  1  0
 37 18  1  0
 10  5  1  0
 14 10  1  0
 30 25  1  0
M  END
>  <Ki>  (1) 
nan

>  <IC50>  (1) 
<10.00

$$$$
