490550
     RDKit          2D

 35 39  0  0  0  0  0  0  0  0999 V2000
    4.8170    2.0490    0.0000 C   0  0  0  0  0  0  0  0  0  0  0  0
    4.0670    3.3481    0.0000 O   0  0  0  0  0  0  0  0  0  0  0  0
    2.5670    3.3481    0.0000 C   0  0  0  0  0  0  0  0  0  0  0  0
    1.8170    2.0490    0.0000 C   0  0  0  0  0  0  0  0  0  0  0  0
    0.3170    2.0490    0.0000 C   0  0  0  0  0  0  0  0  0  0  0  0
   -0.4330    3.3481    0.0000 C   0  0  0  0  0  0  0  0  0  0  0  0
   -1.9330    3.3481    0.0000 C   0  0  0  0  0  0  0  0  0  0  0  0
   -2.6830    2.0490    0.0000 N   0  0  0  0  0  0  0  0  0  0  0  0
   -1.9330    0.7500    0.0000 C   0  0  0  0  0  0  0  0  0  0  0  0
   -0.4330    0.7500    0.0000 C   0  0  0  0  0  0  0  0  0  0  0  0
    0.8660    0.0000    0.0000 C   0  0  0  0  0  0  0  0  0  0  0  0
   -0.4330   -0.7500    0.0000 C   0  0  0  0  0  0  0  0  0  0  0  0
    0.3170    4.6471    0.0000 C   0  0  0  0  0  0  0  0  0  0  0  0
    1.8170    4.6471    0.0000 C   0  0  0  0  0  0  0  0  0  0  0  0
    2.5670    5.9462    0.0000 N   0  0  0  0  0  0  0  0  0  0  0  0
    4.0670    5.9462    0.0000 C   0  0  0  0  0  0  0  0  0  0  0  0
    4.8170    4.6471    0.0000 N   0  0  0  0  0  0  0  0  0  0  0  0
    6.3170    4.6471    0.0000 C   0  0  0  0  0  0  0  0  0  0  0  0
    7.0670    5.9462    0.0000 C   0  0  0  0  0  0  0  0  0  0  0  0
    8.5670    5.9462    0.0000 Cl  0  0  0  0  0  0  0  0  0  0  0  0
    6.3170    7.2452    0.0000 C   0  0  0  0  0  0  0  0  0  0  0  0
    7.0670    8.5442    0.0000 N   0  0  0  0  0  0  0  0  0  0  0  0
    6.3170    9.8433    0.0000 C   0  0  0  0  0  0  0  0  0  0  0  0
    4.8170    9.8433    0.0000 C   0  0  0  0  0  0  0  0  0  0  0  0
    4.0670   11.1423    0.0000 C   0  0  0  0  0  0  0  0  0  0  0  0
    4.8170   12.4413    0.0000 C   0  0  0  0  0  0  0  0  0  0  0  0
    6.3170   12.4413    0.0000 C   0  0  0  0  0  0  0  0  0  0  0  0
    7.0670   11.1423    0.0000 C   0  0  0  0  0  0  0  0  0  0  0  0
    8.5670   11.1423    0.0000 S   0  0  0  0  0  0  0  0  0  0  0  0
    8.5670    9.6423    0.0000 O   0  0  0  0  0  0  0  0  0  0  0  0
    8.5670   12.6423    0.0000 O   0  0  0  0  0  0  0  0  0  0  0  0
   10.0670   11.1423    0.0000 C   0  0  0  0  0  0  0  0  0  0  0  0
   10.8170   12.4413    0.0000 C   0  0  0  0  0  0  0  0  0  0  0  0
   10.8170    9.8433    0.0000 C   0  0  0  0  0  0  0  0  0  0  0  0
    4.8170    7.2452    0.0000 N   0  0  0  0  0  0  0  0  0  0  0  0
  1  2  1  0
  2  3  1  0
  3  4  2  0
  4  5  1  0
  5  6  2  0
  6  7  1  0
  7  8  1  0
  8  9  1  0
  9 10  1  0
 10 11  1  0
 11 12  1  0
  6 13  1  0
 13 14  2  0
 14 15  1  0
 15 16  1  0
 16 17  2  0
 17 18  1  0
 18 19  2  0
 19 20  1  0
 19 21  1  0
 21 22  1  0
 22 23  1  0
 23 24  2  0
 24 25  1  0
 25 26  2  0
 26 27  1  0
 27 28  2  0
 28 29  1  0
 29 30  2  0
 29 31  2  0
 29 32  1  0
 32 33  1  0
 32 34  1  0
 21 35  2  0
 14  3  1  0
 35 16  1  0
 10  5  1  0
 12 10  1  0
 28 23  1  0
M  END
>  <Ki>  (1) 
nan

>  <IC50>  (1) 
<10.00

$$$$
