490384
     RDKit          2D

 43 47  0  0  0  0  0  0  0  0999 V2000
    6.7267    3.8876    0.0000 C   0  0  0  0  0  0  0  0  0  0  0  0
    6.2632    2.4610    0.0000 O   0  0  0  0  0  0  0  0  0  0  0  0
    4.7960    2.1491    0.0000 C   0  0  0  0  0  0  0  0  0  0  0  0
    3.7923    3.2638    0.0000 C   0  0  0  0  0  0  0  0  0  0  0  0
    2.3250    2.9520    0.0000 C   0  0  0  0  0  0  0  0  0  0  0  0
    1.3213    4.0667    0.0000 C   0  0  0  0  0  0  0  0  0  0  0  0
   -0.1459    3.7548    0.0000 N   0  0  0  0  0  0  0  0  0  0  0  0
   -0.6094    2.3282    0.0000 C   0  0  0  0  0  0  0  0  0  0  0  0
    0.3943    1.2135    0.0000 C   0  0  0  0  0  0  0  0  0  0  0  0
    1.2760    0.0000    0.0000 C   0  0  0  0  0  0  0  0  0  0  0  0
    0.3943   -1.2135    0.0000 C   0  0  0  0  0  0  0  0  0  0  0  0
   -1.0323   -0.7500    0.0000 C   0  0  0  0  0  0  0  0  0  0  0  0
   -1.0323    0.7500    0.0000 C   0  0  0  0  0  0  0  0  0  0  0  0
    1.8615    1.5254    0.0000 C   0  0  0  0  0  0  0  0  0  0  0  0
    2.8652    0.4107    0.0000 C   0  0  0  0  0  0  0  0  0  0  0  0
    4.3324    0.7225    0.0000 C   0  0  0  0  0  0  0  0  0  0  0  0
    5.3361   -0.3922    0.0000 N   0  0  0  0  0  0  0  0  0  0  0  0
    4.8726   -1.8188    0.0000 C   0  0  0  0  0  0  0  0  0  0  0  0
    3.4054   -2.1306    0.0000 N   0  0  0  0  0  0  0  0  0  0  0  0
    2.9419   -3.5572    0.0000 C   0  0  0  0  0  0  0  0  0  0  0  0
    3.9456   -4.6719    0.0000 C   0  0  0  0  0  0  0  0  0  0  0  0
    3.4820   -6.0985    0.0000 Cl  0  0  0  0  0  0  0  0  0  0  0  0
    5.4128   -4.3601    0.0000 C   0  0  0  0  0  0  0  0  0  0  0  0
    6.4165   -5.4748    0.0000 N   0  0  0  0  0  0  0  0  0  0  0  0
    7.8837   -5.1629    0.0000 C   0  0  0  0  0  0  0  0  0  0  0  0
    8.3472   -3.7363    0.0000 C   0  0  0  0  0  0  0  0  0  0  0  0
    9.8144   -3.4245    0.0000 C   0  0  0  0  0  0  0  0  0  0  0  0
   10.8181   -4.5392    0.0000 C   0  0  0  0  0  0  0  0  0  0  0  0
   10.3546   -5.9658    0.0000 C   0  0  0  0  0  0  0  0  0  0  0  0
    8.8874   -6.2776    0.0000 C   0  0  0  0  0  0  0  0  0  0  0  0
    8.4239   -7.7042    0.0000 S   0  0  0  0  0  0  0  0  0  0  0  0
    6.9973   -7.2407    0.0000 O   0  0  0  0  0  0  0  0  0  0  0  0
    9.8505   -8.1677    0.0000 O   0  0  0  0  0  0  0  0  0  0  0  0
    7.9603   -9.1308    0.0000 C   0  0  0  0  0  0  0  0  0  0  0  0
    8.9640  -10.2455    0.0000 C   0  0  0  0  0  0  0  0  0  0  0  0
    6.4931   -9.4427    0.0000 C   0  0  0  0  0  0  0  0  0  0  0  0
    5.8763   -2.9335    0.0000 N   0  0  0  0  0  0  0  0  0  0  0  0
   -1.1496    4.8695    0.0000 C   0  0  0  0  0  0  0  0  0  0  0  0
   -2.6168    4.5577    0.0000 O   0  0  0  0  0  0  0  0  0  0  0  0
   -0.6860    6.2961    0.0000 C   0  0  0  0  0  0  0  0  0  0  0  0
   -0.2225    7.7227    0.0000 F   0  0  0  0  0  0  0  0  0  0  0  0
   -2.1126    6.7597    0.0000 F   0  0  0  0  0  0  0  0  0  0  0  0
    0.7405    5.8326    0.0000 F   0  0  0  0  0  0  0  0  0  0  0  0
  1  2  1  0
  2  3  1  0
  3  4  2  0
  4  5  1  0
  5  6  1  0
  6  7  1  0
  7  8  1  0
  8  9  1  0
  9 10  1  0
 10 11  1  0
 11 12  1  0
 12 13  1  0
  9 14  1  0
 14 15  1  0
 15 16  2  0
 16 17  1  0
 17 18  1  0
 18 19  2  0
 19 20  1  0
 20 21  2  0
 21 22  1  0
 21 23  1  0
 23 24  1  0
 24 25  1  0
 25 26  2  0
 26 27  1  0
 27 28  2  0
 28 29  1  0
 29 30  2  0
 30 31  1  0
 31 32  2  0
 31 33  2  0
 31 34  1  0
 34 35  1  0
 34 36  1  0
 23 37  2  0
  7 38  1  0
 38 39  2  0
 38 40  1  0
 40 41  1  0
 40 42  1  0
 40 43  1  0
 16  3  1  0
 37 18  1  0
 14  5  2  0
 30 25  1  0
 13  9  1  0
M  END
>  <Ki>  (1) 
nan

>  <IC50>  (1) 
<10.00

$$$$
