490416
     RDKit          2D

 42 46  0  0  0  0  0  0  0  0999 V2000
   -4.1830    7.2452    0.0000 C   0  0  0  0  0  0  0  0  0  0  0  0
   -2.6830    7.2452    0.0000 O   0  0  0  0  0  0  0  0  0  0  0  0
   -1.9330    5.9462    0.0000 C   0  0  0  0  0  0  0  0  0  0  0  0
   -2.6830    4.6471    0.0000 C   0  0  0  0  0  0  0  0  0  0  0  0
   -1.9330    3.3481    0.0000 C   0  0  0  0  0  0  0  0  0  0  0  0
   -2.6830    2.0490    0.0000 C   0  0  0  0  0  0  0  0  0  0  0  0
   -4.1830    2.0490    0.0000 C   0  0  0  0  0  0  0  0  0  0  0  0
   -1.9330    0.7500    0.0000 N   0  0  0  0  0  0  0  0  0  0  0  0
   -2.6830   -0.5490    0.0000 C   0  0  0  0  0  0  0  0  0  0  0  0
   -1.9330   -1.8481    0.0000 O   0  0  0  0  0  0  0  0  0  0  0  0
   -4.1830   -0.5490    0.0000 C   0  0  0  0  0  0  0  0  0  0  0  0
   -5.6830   -0.5490    0.0000 F   0  0  0  0  0  0  0  0  0  0  0  0
   -4.1830   -2.0490    0.0000 F   0  0  0  0  0  0  0  0  0  0  0  0
   -4.1830    0.9510    0.0000 F   0  0  0  0  0  0  0  0  0  0  0  0
   -0.4330    0.7500    0.0000 C   0  0  0  0  0  0  0  0  0  0  0  0
    0.8660    0.0000    0.0000 C   0  0  0  0  0  0  0  0  0  0  0  0
   -0.4330   -0.7500    0.0000 C   0  0  0  0  0  0  0  0  0  0  0  0
    0.3170    2.0490    0.0000 C   0  0  0  0  0  0  0  0  0  0  0  0
   -0.4330    3.3481    0.0000 C   0  0  0  0  0  0  0  0  0  0  0  0
    0.3170    4.6471    0.0000 C   0  0  0  0  0  0  0  0  0  0  0  0
   -0.4330    5.9462    0.0000 C   0  0  0  0  0  0  0  0  0  0  0  0
    0.3170    7.2452    0.0000 N   0  0  0  0  0  0  0  0  0  0  0  0
    1.8170    7.2452    0.0000 C   0  0  0  0  0  0  0  0  0  0  0  0
    2.5670    5.9462    0.0000 N   0  0  0  0  0  0  0  0  0  0  0  0
    4.0670    5.9462    0.0000 C   0  0  0  0  0  0  0  0  0  0  0  0
    4.8170    7.2452    0.0000 C   0  0  0  0  0  0  0  0  0  0  0  0
    6.3170    7.2452    0.0000 Cl  0  0  0  0  0  0  0  0  0  0  0  0
    4.0670    8.5442    0.0000 C   0  0  0  0  0  0  0  0  0  0  0  0
    4.8170    9.8433    0.0000 N   0  0  0  0  0  0  0  0  0  0  0  0
    4.0670   11.1423    0.0000 C   0  0  0  0  0  0  0  0  0  0  0  0
    2.5670   11.1423    0.0000 C   0  0  0  0  0  0  0  0  0  0  0  0
    1.8170   12.4413    0.0000 C   0  0  0  0  0  0  0  0  0  0  0  0
    2.5670   13.7404    0.0000 C   0  0  0  0  0  0  0  0  0  0  0  0
    4.0670   13.7404    0.0000 C   0  0  0  0  0  0  0  0  0  0  0  0
    4.8170   12.4413    0.0000 C   0  0  0  0  0  0  0  0  0  0  0  0
    6.3170   12.4413    0.0000 S   0  0  0  0  0  0  0  0  0  0  0  0
    6.3170   10.9413    0.0000 O   0  0  0  0  0  0  0  0  0  0  0  0
    6.3170   13.9413    0.0000 O   0  0  0  0  0  0  0  0  0  0  0  0
    7.8170   12.4413    0.0000 C   0  0  0  0  0  0  0  0  0  0  0  0
    8.5670   13.7404    0.0000 C   0  0  0  0  0  0  0  0  0  0  0  0
    8.5670   11.1423    0.0000 C   0  0  0  0  0  0  0  0  0  0  0  0
    2.5670    8.5442    0.0000 N   0  0  0  0  0  0  0  0  0  0  0  0
  1  2  1  0
  2  3  1  0
  3  4  2  0
  4  5  1  0
  5  6  1  0
  6  7  1  0
  6  8  1  0
  8  9  1  0
  9 10  2  0
  9 11  1  0
 11 12  1  0
 11 13  1  0
 11 14  1  0
  8 15  1  0
 15 16  1  0
 16 17  1  0
 15 18  1  0
 18 19  1  0
 19 20  1  0
 20 21  2  0
 21 22  1  0
 22 23  1  0
 23 24  2  0
 24 25  1  0
 25 26  2  0
 26 27  1  0
 26 28  1  0
 28 29  1  0
 29 30  1  0
 30 31  2  0
 31 32  1  0
 32 33  2  0
 33 34  1  0
 34 35  2  0
 35 36  1  0
 36 37  2  0
 36 38  2  0
 36 39  1  0
 39 40  1  0
 39 41  1  0
 28 42  2  0
 21  3  1  0
 42 23  1  0
 19  5  2  0
 35 30  1  0
 17 15  1  0
M  END
>  <Ki>  (1) 
nan

>  <IC50>  (1) 
<10.00

$$$$
