51082308
     RDKit          2D

 42 47  0  0  0  0  0  0  0  0999 V2000
   14.9115    8.3226    0.0000 C   0  0  0  0  0  0  0  0  0  0  0  0
   14.7547    9.8144    0.0000 N   0  0  0  0  0  0  0  0  0  0  0  0
   15.9682   10.6961    0.0000 C   0  0  0  0  0  0  0  0  0  0  0  0
   13.3844   10.4245    0.0000 C   0  0  0  0  0  0  0  0  0  0  0  0
   12.1708    9.5428    0.0000 C   0  0  0  0  0  0  0  0  0  0  0  0
   10.8005   10.1529    0.0000 C   0  0  0  0  0  0  0  0  0  0  0  0
   10.6437   11.6447    0.0000 C   0  0  0  0  0  0  0  0  0  0  0  0
    9.2734   12.2548    0.0000 O   0  0  0  0  0  0  0  0  0  0  0  0
    9.1166   13.7466    0.0000 C   0  0  0  0  0  0  0  0  0  0  0  0
   10.3302   14.6283    0.0000 C   0  0  0  0  0  0  0  0  0  0  0  0
   10.1734   16.1200    0.0000 C   0  0  0  0  0  0  0  0  0  0  0  0
   11.3869   17.0017    0.0000 O   0  0  0  0  0  0  0  0  0  0  0  0
    8.8030   16.7302    0.0000 C   0  0  0  0  0  0  0  0  0  0  0  0
    7.5895   15.8485    0.0000 C   0  0  0  0  0  0  0  0  0  0  0  0
    6.2192   16.4586    0.0000 O   0  0  0  0  0  0  0  0  0  0  0  0
    7.7463   14.3567    0.0000 C   0  0  0  0  0  0  0  0  0  0  0  0
    6.5328   13.4750    0.0000 C   0  0  0  0  0  0  0  0  0  0  0  0
    6.5328   11.9750    0.0000 C   0  0  0  0  0  0  0  0  0  0  0  0
    5.1062   11.5115    0.0000 C   0  0  0  0  0  0  0  0  0  0  0  0
    4.2245   12.7250    0.0000 N   0  0  0  0  0  0  0  0  0  0  0  0
    5.1062   13.9385    0.0000 O   0  0  0  0  0  0  0  0  0  0  0  0
    4.6427   10.0849    0.0000 C   0  0  0  0  0  0  0  0  0  0  0  0
    5.6464    8.9702    0.0000 O   0  0  0  0  0  0  0  0  0  0  0  0
    3.1755    9.7730    0.0000 N   0  0  0  0  0  0  0  0  0  0  0  0
    2.7119    8.3464    0.0000 C   0  0  0  0  0  0  0  0  0  0  0  0
    1.2447    8.0346    0.0000 C   0  0  0  0  0  0  0  0  0  0  0  0
    0.7812    6.6080    0.0000 C   0  0  0  0  0  0  0  0  0  0  0  0
    1.7849    5.4933    0.0000 N   0  0  0  0  0  0  0  0  0  0  0  0
    3.2521    5.8051    0.0000 C   0  0  0  0  0  0  0  0  0  0  0  0
    3.7156    7.2317    0.0000 C   0  0  0  0  0  0  0  0  0  0  0  0
    1.3213    4.0667    0.0000 C   0  0  0  0  0  0  0  0  0  0  0  0
   -0.1459    3.7548    0.0000 C   0  0  0  0  0  0  0  0  0  0  0  0
   -0.6094    2.3282    0.0000 C   0  0  0  0  0  0  0  0  0  0  0  0
    0.3943    1.2135    0.0000 C   0  0  0  0  0  0  0  0  0  0  0  0
    1.8615    1.5254    0.0000 C   0  0  0  0  0  0  0  0  0  0  0  0
    2.3250    2.9520    0.0000 C   0  0  0  0  0  0  0  0  0  0  0  0
    1.2760    0.0000    0.0000 O   0  0  0  0  0  0  0  0  0  0  0  0
    0.3943   -1.2135    0.0000 C   0  0  0  0  0  0  0  0  0  0  0  0
   -1.0323   -0.7500    0.0000 C   0  0  0  0  0  0  0  0  0  0  0  0
   -1.0323    0.7500    0.0000 O   0  0  0  0  0  0  0  0  0  0  0  0
   11.8573   12.5264    0.0000 C   0  0  0  0  0  0  0  0  0  0  0  0
   13.2276   11.9163    0.0000 C   0  0  0  0  0  0  0  0  0  0  0  0
  1  2  1  0
  2  3  1  0
  2  4  1  0
  4  5  2  0
  5  6  1  0
  6  7  2  0
  7  8  1  0
  8  9  1  0
  9 10  2  0
 10 11  1  0
 11 12  1  0
 11 13  2  0
 13 14  1  0
 14 15  1  0
 14 16  2  0
 16 17  1  0
 17 18  2  0
 18 19  1  0
 19 20  2  0
 20 21  1  0
 19 22  1  0
 22 23  2  0
 22 24  1  0
 24 25  1  0
 25 26  1  0
 26 27  1  0
 27 28  1  0
 28 29  1  0
 29 30  1  0
 28 31  1  0
 31 32  1  0
 32 33  1  0
 33 34  1  0
 34 35  1  0
 35 36  1  0
 34 37  1  0
 37 38  1  0
 38 39  1  0
 39 40  1  0
  7 41  1  0
 41 42  2  0
 42  4  1  0
 16  9  1  0
 21 17  1  0
 30 25  1  0
 36 31  1  0
 40 34  1  0
M  END
>  <Ki>  (1) 
nan

>  <IC50>  (1) 
>10.0

$$$$
