51082310
     RDKit          2D

 33 36  0  0  0  0  0  0  0  0999 V2000
    3.7500   -1.2990    0.0000 C   0  0  0  0  0  0  0  0  0  0  0  0
    3.0000    0.0000    0.0000 N   0  0  0  0  0  0  0  0  0  0  0  0
    3.7500    1.2990    0.0000 C   0  0  0  0  0  0  0  0  0  0  0  0
    1.5000    0.0000    0.0000 C   0  0  0  0  0  0  0  0  0  0  0  0
    0.7500   -1.2990    0.0000 C   0  0  0  0  0  0  0  0  0  0  0  0
   -0.7500   -1.2990    0.0000 C   0  0  0  0  0  0  0  0  0  0  0  0
   -1.5000    0.0000    0.0000 C   0  0  0  0  0  0  0  0  0  0  0  0
   -3.0000    0.0000    0.0000 O   0  0  0  0  0  0  0  0  0  0  0  0
   -3.7500    1.2990    0.0000 C   0  0  0  0  0  0  0  0  0  0  0  0
   -3.0000    2.5981    0.0000 C   0  0  0  0  0  0  0  0  0  0  0  0
   -3.7500    3.8971    0.0000 C   0  0  0  0  0  0  0  0  0  0  0  0
   -3.0000    5.1962    0.0000 O   0  0  0  0  0  0  0  0  0  0  0  0
   -5.2500    3.8971    0.0000 C   0  0  0  0  0  0  0  0  0  0  0  0
   -6.0000    2.5981    0.0000 C   0  0  0  0  0  0  0  0  0  0  0  0
   -7.5000    2.5981    0.0000 O   0  0  0  0  0  0  0  0  0  0  0  0
   -5.2500    1.2990    0.0000 C   0  0  0  0  0  0  0  0  0  0  0  0
   -6.0000    0.0000    0.0000 C   0  0  0  0  0  0  0  0  0  0  0  0
   -5.3899   -1.3703    0.0000 C   0  0  0  0  0  0  0  0  0  0  0  0
   -6.5046   -2.3740    0.0000 C   0  0  0  0  0  0  0  0  0  0  0  0
   -7.8037   -1.6240    0.0000 N   0  0  0  0  0  0  0  0  0  0  0  0
   -7.4918   -0.1568    0.0000 O   0  0  0  0  0  0  0  0  0  0  0  0
   -6.3478   -3.8658    0.0000 C   0  0  0  0  0  0  0  0  0  0  0  0
   -4.9775   -4.4759    0.0000 O   0  0  0  0  0  0  0  0  0  0  0  0
   -7.5613   -4.7475    0.0000 N   0  0  0  0  0  0  0  0  0  0  0  0
   -7.4046   -6.2393    0.0000 C   0  0  0  0  0  0  0  0  0  0  0  0
   -8.6181   -7.1209    0.0000 C   0  0  0  0  0  0  0  0  0  0  0  0
   -8.4613   -8.6127    0.0000 C   0  0  0  0  0  0  0  0  0  0  0  0
   -7.0910   -9.2228    0.0000 N   0  0  0  0  0  0  0  0  0  0  0  0
   -6.9342  -10.7146    0.0000 C   0  0  0  0  0  0  0  0  0  0  0  0
   -5.8774   -8.3411    0.0000 C   0  0  0  0  0  0  0  0  0  0  0  0
   -6.0342   -6.8494    0.0000 C   0  0  0  0  0  0  0  0  0  0  0  0
   -0.7500    1.2990    0.0000 C   0  0  0  0  0  0  0  0  0  0  0  0
    0.7500    1.2990    0.0000 C   0  0  0  0  0  0  0  0  0  0  0  0
  1  2  1  0
  2  3  1  0
  2  4  1  0
  4  5  2  0
  5  6  1  0
  6  7  2  0
  7  8  1  0
  8  9  1  0
  9 10  2  0
 10 11  1  0
 11 12  1  0
 11 13  2  0
 13 14  1  0
 14 15  1  0
 14 16  2  0
 16 17  1  0
 17 18  2  0
 18 19  1  0
 19 20  2  0
 20 21  1  0
 19 22  1  0
 22 23  2  0
 22 24  1  0
 24 25  1  0
 25 26  1  0
 26 27  1  0
 27 28  1  0
 28 29  1  0
 28 30  1  0
 30 31  1  0
  7 32  1  0
 32 33  2  0
 33  4  1  0
 16  9  1  0
 21 17  1  0
 31 25  1  0
M  END
>  <Ki>  (1) 
nan

>  <IC50>  (1) 
>10.0

$$$$
