51100804
     RDKit          2D

 60 65  0  0  0  0  0  0  0  0999 V2000
   -2.9716   -7.4453    0.0000 C   0  0  0  0  0  0  0  0  0  0  0  0
   -2.5081   -6.0187    0.0000 C   0  0  0  0  0  0  0  0  0  0  0  0
   -1.0409   -5.7068    0.0000 N   0  0  0  0  0  0  0  0  0  0  0  0
   -0.5773   -4.2803    0.0000 C   0  0  0  0  0  0  0  0  0  0  0  0
   -1.5810   -3.1655    0.0000 O   0  0  0  0  0  0  0  0  0  0  0  0
    0.8899   -3.9684    0.0000 C   0  0  0  0  0  0  0  0  0  0  0  0
    2.0046   -4.9721    0.0000 N   0  0  0  0  0  0  0  0  0  0  0  0
    3.3037   -4.2221    0.0000 O   0  0  0  0  0  0  0  0  0  0  0  0
    2.9918   -2.7549    0.0000 C   0  0  0  0  0  0  0  0  0  0  0  0
    1.5000   -2.5981    0.0000 C   0  0  0  0  0  0  0  0  0  0  0  0
    0.7500   -1.2990    0.0000 C   0  0  0  0  0  0  0  0  0  0  0  0
    1.5000    0.0000    0.0000 C   0  0  0  0  0  0  0  0  0  0  0  0
    0.7500    1.2990    0.0000 C   0  0  0  0  0  0  0  0  0  0  0  0
   -0.7500    1.2990    0.0000 C   0  0  0  0  0  0  0  0  0  0  0  0
   -1.5000    2.5981    0.0000 C   0  0  0  0  0  0  0  0  0  0  0  0
   -0.7500    3.8971    0.0000 N   0  0  0  0  0  0  0  0  0  0  0  0
   -1.5000    5.1962    0.0000 C   0  0  0  0  0  0  0  0  0  0  0  0
   -0.7500    6.4952    0.0000 C   0  0  0  0  0  0  0  0  0  0  0  0
    0.7500    6.4952    0.0000 O   0  0  0  0  0  0  0  0  0  0  0  0
   -1.5000    7.7942    0.0000 N   0  0  0  0  0  0  0  0  0  0  0  0
   -0.7500    9.0933    0.0000 C   0  0  0  0  0  0  0  0  0  0  0  0
    0.7500    9.0933    0.0000 C   0  0  0  0  0  0  0  0  0  0  0  0
    1.5000   10.3923    0.0000 C   0  0  0  0  0  0  0  0  0  0  0  0
    0.7500   11.6913    0.0000 C   0  0  0  0  0  0  0  0  0  0  0  0
   -0.7500   11.6913    0.0000 C   0  0  0  0  0  0  0  0  0  0  0  0
   -1.5000   12.9904    0.0000 N   0  0  0  0  0  0  0  0  0  0  0  0
   -0.7500   14.2894    0.0000 C   0  0  0  0  0  0  0  0  0  0  0  0
    0.7500   14.2894    0.0000 N   0  0  0  0  0  0  0  0  0  0  0  0
    1.5000   15.5885    0.0000 C   0  0  0  0  0  0  0  0  0  0  0  0
    0.7500   16.8875    0.0000 C   0  0  0  0  0  0  0  0  0  0  0  0
    1.5000   18.1865    0.0000 Cl  0  0  0  0  0  0  0  0  0  0  0  0
   -0.7500   16.8875    0.0000 C   0  0  0  0  0  0  0  0  0  0  0  0
   -1.5000   18.1865    0.0000 N   0  0  0  0  0  0  0  0  0  0  0  0
   -3.0000   18.1865    0.0000 C   0  0  0  0  0  0  0  0  0  0  0  0
   -3.7500   16.8875    0.0000 C   0  0  0  0  0  0  0  0  0  0  0  0
   -5.2500   16.8875    0.0000 C   0  0  0  0  0  0  0  0  0  0  0  0
   -6.0000   18.1865    0.0000 C   0  0  0  0  0  0  0  0  0  0  0  0
   -5.2500   19.4856    0.0000 C   0  0  0  0  0  0  0  0  0  0  0  0
   -3.7500   19.4856    0.0000 C   0  0  0  0  0  0  0  0  0  0  0  0
   -3.0000   20.7846    0.0000 S   0  0  0  0  0  0  0  0  0  0  0  0
   -1.7010   20.0346    0.0000 O   0  0  0  0  0  0  0  0  0  0  0  0
   -4.2990   21.5346    0.0000 O   0  0  0  0  0  0  0  0  0  0  0  0
   -2.2500   22.0836    0.0000 C   0  0  0  0  0  0  0  0  0  0  0  0
   -3.0000   23.3827    0.0000 C   0  0  0  0  0  0  0  0  0  0  0  0
   -0.7500   22.0836    0.0000 C   0  0  0  0  0  0  0  0  0  0  0  0
   -1.5000   15.5885    0.0000 N   0  0  0  0  0  0  0  0  0  0  0  0
   -1.5000   10.3923    0.0000 C   0  0  0  0  0  0  0  0  0  0  0  0
   -1.5000    0.0000    0.0000 C   0  0  0  0  0  0  0  0  0  0  0  0
   -0.7500   -1.2990    0.0000 C   0  0  0  0  0  0  0  0  0  0  0  0
    3.9955   -1.6402    0.0000 C   0  0  0  0  0  0  0  0  0  0  0  0
    3.5320   -0.2136    0.0000 C   0  0  0  0  0  0  0  0  0  0  0  0
    4.5356    0.9012    0.0000 C   0  0  0  0  0  0  0  0  0  0  0  0
    4.0721    2.3277    0.0000 C   0  0  0  0  0  0  0  0  0  0  0  0
    2.6049    2.6396    0.0000 C   0  0  0  0  0  0  0  0  0  0  0  0
    5.0758    3.4425    0.0000 C   0  0  0  0  0  0  0  0  0  0  0  0
    6.0029    0.5893    0.0000 C   0  0  0  0  0  0  0  0  0  0  0  0
    7.0066    1.7040    0.0000 O   0  0  0  0  0  0  0  0  0  0  0  0
    6.4664   -0.8373    0.0000 C   0  0  0  0  0  0  0  0  0  0  0  0
    5.4627   -1.9520    0.0000 C   0  0  0  0  0  0  0  0  0  0  0  0
    5.9262   -3.3786    0.0000 O   0  0  0  0  0  0  0  0  0  0  0  0
  1  2  1  0
  2  3  1  0
  3  4  1  0
  4  5  2  0
  4  6  1  0
  6  7  2  0
  7  8  1  0
  8  9  1  0
  9 10  2  0
 10 11  1  0
 11 12  2  0
 12 13  1  0
 13 14  2  0
 14 15  1  0
 15 16  1  0
 16 17  1  0
 17 18  1  0
 18 19  2  0
 18 20  1  0
 20 21  1  0
 21 22  2  0
 22 23  1  0
 23 24  2  0
 24 25  1  0
 25 26  1  0
 26 27  1  0
 27 28  2  0
 28 29  1  0
 29 30  2  0
 30 31  1  0
 30 32  1  0
 32 33  1  0
 33 34  1  0
 34 35  2  0
 35 36  1  0
 36 37  2  0
 37 38  1  0
 38 39  2  0
 39 40  1  0
 40 41  2  0
 40 42  2  0
 40 43  1  0
 43 44  1  0
 43 45  1  0
 32 46  2  0
 25 47  2  0
 14 48  1  0
 48 49  2  0
  9 50  1  0
 50 51  2  0
 51 52  1  0
 52 53  1  0
 53 54  1  0
 53 55  1  0
 52 56  2  0
 56 57  1  0
 56 58  1  0
 58 59  2  0
 59 60  1  0
 10  6  1  0
 49 11  1  0
 59 50  1  0
 47 21  1  0
 46 27  1  0
 39 34  1  0
M  END
>  <Ki>  (1) 
nan

>  <IC50>  (1) 
 10

$$$$
